         162
  Built with Packmol                                             
  C           -1.406262        0.131332       -0.560732
  C            0.111448        0.126132       -0.530262
  C            0.645668       -0.034168        0.885768
  O            2.066898       -0.031088        0.868578
  H           -1.765252        0.248152       -1.587942
  H           -1.807782        0.956862        0.035588
  H           -1.809272       -0.806428       -0.164632
  H            0.496848        1.055813       -0.965302
  H            0.492628       -0.684047       -1.163372
  H            0.306228       -0.972128        1.337038
  H            0.314418        0.792072        1.522658
  H            2.354428       -0.782508        0.322608
  O           -3.660719        2.307485       -0.378330
  H           -4.544961        2.085497       -0.050025
  H           -3.768392        3.190806       -0.761889
  O           -0.532533       -3.593699       -3.347168
  H           -0.883171       -2.931345       -3.961404
  H            0.425499       -3.560162       -3.488656
  O           -3.927914       -0.134166        0.742791
  H           -4.878855        0.050628        0.720176
  H           -3.644020       -0.012992       -0.175734
  O           -2.458852        0.212353        3.626374
  H           -2.356191        0.875713        4.325203
  H           -2.848295       -0.549115        4.081860
  O            2.185991        3.819774        1.823285
  H            1.932899        4.435298        1.118996
  H            1.664642        3.024379        1.637517
  O           -1.953288       -1.063044        2.171355
  H           -1.613424       -0.259935        1.748914
  H           -1.173305       -1.453530        2.593392
  O            2.566876        1.067607       -1.222889
  H            2.467554        0.240203       -1.717344
  H            2.178155        1.736836       -1.805982
  O            2.582873        3.334807       -0.673184
  H            2.457794        4.278212       -0.855642
  H            1.714153        3.039481       -0.361616
  O            3.550277       -0.417941       -3.490127
  H            3.440329        0.539399       -3.591912
  H            4.158303       -0.505340       -2.740705
  O            2.293168       -2.049187       -3.884176
  H            2.305895       -2.885526       -3.394971
  H            1.434277       -2.053485       -4.332791
  O            1.842139        2.980112       -3.463610
  H            2.473681        2.286269       -3.705861
  H            2.299889        3.482486       -2.772920
  O            0.707931       -2.892732        0.519358
  H            1.513824       -2.520052        0.907421
  H            0.175628       -3.149756        1.287186
  O           -2.440644        1.562868       -4.082101
  H           -1.550483        1.856793       -4.327393
  H           -2.345091        0.606826       -3.956316
  O            2.453473        2.111055        3.540589
  H            1.822940        2.836780        3.661822
  H            3.146699        2.494096        2.982301
  O           -0.333576        1.191467       -2.886442
  H           -0.844246        1.838446       -2.376950
  H            0.278043        1.733606       -3.406996
  O           -0.948823       -0.483946        4.737009
  H           -0.012455       -0.461643        4.985336
  H           -1.147156       -1.429006        4.656429
  O            1.778091       -0.091236       -4.507388
  H            1.527120        0.826338       -4.691828
  H            1.562848       -0.208849       -3.569942
  O            0.154917        4.481508        2.033434
  H            0.495530        4.096205        2.854696
  H           -0.212451        3.723712        1.554108
  O           -3.410938       -0.838220       -2.555124
  H           -3.399086       -1.077523       -3.494029
  H           -4.322190       -1.018316       -2.279165
  O           -1.189432        2.858405        0.038518
  H           -0.254262        2.736209       -0.183907
  H           -1.642702        2.800992       -0.816010
  O           -2.434311       -3.408269        2.550016
  H           -1.741139       -4.055809        2.352144
  H           -2.149339       -3.008208        3.385306
  O            1.577666       -4.575702        1.267878
  H            2.401086       -4.310479        0.831317
  H            1.010490       -4.869421        0.539175
  O            2.680500        0.079094        4.106285
  H            2.028106       -0.475910        4.559386
  H            3.305768       -0.556744        3.727182
  O           -1.515484        3.593856        3.064867
  H           -2.386757        3.171273        3.100273
  H           -1.013138        3.153650        3.766888
  O           -4.186754       -1.758249        1.880989
  H           -3.967714       -2.633211        1.526856
  H           -3.782202       -1.754136        2.761493
  O            1.955371       -4.434664       -1.168942
  H            1.662981       -4.240206       -2.072071
  H            2.812602       -3.988275       -1.099229
  O            0.973739        1.223219        4.551405
  H            0.269764        1.884597        4.628522
  H            0.878130        0.883768        3.648854
  O           -0.590069       -0.857018       -2.907337
  H           -1.409007       -1.369025       -2.829002
  H            0.105782       -1.530904       -2.932583
  O           -0.256927        4.997358        0.013307
  H            0.649395        4.948264       -0.325983
  H           -0.808512        4.875590       -0.774026
  O           -4.018578        1.136579        2.782556
  H           -4.337579        1.527352        1.955221
  H           -4.226490        0.194497        2.691885
  O           -0.054449       -3.462740        3.248044
  H            0.836729       -3.822199        3.123384
  H            0.013982       -2.945258        4.064437
  O           -2.550160       -3.026885       -2.780353
  H           -3.393342       -2.827234       -2.346612
  H           -2.238123       -3.825572       -2.329022
  O            4.112434        2.241827       -1.759852
  H            4.378693        1.347753       -2.021933
  H            4.369944        2.298865       -0.827434
  O           -2.521628        3.985470        1.278370
  H           -3.333862        3.463891        1.363103
  H           -2.538933        4.298290        0.361412
  O            4.346661        0.553766        2.370199
  H            4.506809       -0.373495        2.138928
  H            3.409058        0.687525        2.165316
  O            4.980442        0.047636       -0.463568
  H            4.062193       -0.227728       -0.604777
  H            4.961070        0.495274        0.395625
  O           -4.228381        1.575862       -2.151054
  H           -4.669064        0.879806       -1.640904
  H           -3.350448        1.210014       -2.336413
  O           -0.930869       -0.448665       -4.896149
  H           -0.276140       -1.162114       -4.860524
  H           -0.396320        0.356000       -4.971903
  O            3.391951       -3.029857        2.005210
  H            3.778921       -2.232132        2.396152
  H            2.700333       -3.286569        2.633486
  O           -0.002251       -3.990698       -0.993538
  H           -0.284480       -4.636310       -1.658729
  H            0.013844       -3.150084       -1.475281
  O            2.098050       -1.723843       -1.781209
  H            1.768079       -2.283138       -1.062004
  H            3.057876       -1.854870       -1.758085
  O           -1.380002        1.854805        1.954359
  H           -1.110311        1.419511        2.776997
  H           -2.312385        1.610361        1.854982
  O           -2.030138        3.350006       -2.932952
  H           -1.716251        4.067240       -2.361989
  H           -2.911791        3.144521       -2.587361
  O           -1.601234       -4.740395       -0.055842
  H           -2.403282       -4.391680        0.361370
  H           -0.984218       -4.854994        0.682485
  O           -1.315553       -2.735359        0.021752
  H           -1.812074       -2.540421        0.830711
  H           -1.990317       -2.731497       -0.673695
  O            0.260501        4.257272       -2.597844
  H           -0.014721        3.713433       -3.351130
  H            0.497323        3.610442       -1.916305
  O           -3.872489       -2.065624       -0.560525
  H           -4.704088       -1.709555       -0.213243
  H           -3.958582       -3.023006       -0.438152
  O            1.294193       -1.888761        2.895494
  H            0.691626       -1.235069        3.280912
  H            1.976013       -1.352550        2.463560
  O            3.487048        2.581576        0.944165
  H            4.329096        2.198418        1.232425
  H            3.001736        1.828772        0.574400
  O            3.863074       -2.094587        0.301500
  H            4.672711       -1.676610        0.631246
  H            4.179930       -2.733187       -0.354823
