12

C                      -0.66272968    -0.10468207    -1.26953012
C                       0.03899148     0.37212393     0.00000000
O                       1.42627424    -0.00323833     0.00000000
C                      -0.66272968    -0.10468207     1.26953012
H                      -0.12667300     0.24636520    -2.16023931
H                      -0.70033406    -1.20519784    -1.30013059
H                      -1.69685515     0.26512822    -1.31565667
H                       0.06754610     1.47307416     0.00000000
H                       1.46389276    -0.97385129     0.00000000
H                      -0.70033406    -1.20519784     1.30013059
H                      -0.12667300     0.24636520     2.16023931
H                      -1.69685515     0.26512822     1.31565667
