115

O                    -2.43069455     7.18084332    -2.62422135
Si                   -3.94745563    -1.79355296    -1.83788593
Si                    1.88267392    -3.54954409    -1.71597974
Si                    4.57841624    -3.03399979    -0.08990130
Si                    5.80954798    -0.37672506    -1.38625050
Si                    1.68976347     3.74061426    -1.81107171
Si                    3.22471510     1.23866462    -1.00464051
Si                    0.69899152    -0.73586136    -0.84563496
Si                   -1.03470989     3.22033883    -3.33851565
Si                   -2.79448439    -4.43794842    -2.71284392
Si                   -0.48848406    -5.33183618    -0.67182445
O                    -5.41290277    -2.03392977    -2.50190255
O                     3.28903836    -3.49640124    -0.94038086
O                     5.31243823    -1.80767092    -0.82266430
O                     4.08469549    -2.51050816     1.35326182
O                    -2.90780046    -2.80767895    -2.63594733
O                     0.37730594    -0.96178569     0.71015740
O                     1.11875988    -2.14819884    -1.50121731
O                     4.46770973     0.49385636    -1.69817581
O                     2.13984980    -3.78967623    -3.29745694
O                     6.64302711    -0.64649524    -2.74097801
O                    -2.45451975    -4.74756236    -4.26771538
O                     2.29779252     5.10553392    -2.41219232
O                     2.84625979     2.61034807    -1.74076263
O                     1.92766777     0.28191108    -0.99447301
O                    -0.59718259    -0.23052034    -1.67543716
O                    -1.90441398     2.02803641    -2.76446738
O                     0.45890613     3.20170509    -2.69447360
O                    -4.20278777    -5.06170535    -2.23745154
O                    -1.61882000    -4.96130032    -1.75798443
O                    -0.36948533    -6.93767084    -0.58410621
O                    -0.89510648    -4.69230206     0.74684879
O                    -0.94221650     3.07219103    -4.95511221
O                    -3.38794535    -0.32832415    -2.00027937
O                     0.92887256    -4.71069667    -1.13650203
Al                   -2.09267908     0.76112620    -1.62771248
H                    -0.77810047    -0.75395377    -2.82426240
Si                    0.40130669    -1.42473902     2.25828335
Si                    3.51500908    -1.73336095     2.64078880
Si                   -1.62389064     5.95490580    -1.95122968
Si                    4.15958699     1.33753713     2.04127075
Si                   -4.46676809     0.06509164     2.90721929
Si                   -4.25518866    -2.67504103     1.23509127
Si                   -1.47438750    -3.97460481     2.06854925
Si                    0.89703878     4.82534709     1.03987672
Si                    2.09983071     3.21516758     3.47433616
Si                   -0.46872837     1.31721363     3.58345404
Si                   -2.60473282     2.02381387     1.35329820
Si                   -2.23392883     5.02871900     0.99809869
O                     1.90748398    -1.85395769     2.63399132
O                    -0.07560073     6.39135139    -1.68892985
O                     3.91628320    -0.17673357     2.51795915
O                    -6.00412355     0.34803352     3.31279198
O                    -0.06155717    -0.19920149     3.17678726
O                    -4.02234713    -2.29761626    -0.31085133
O                    -4.41159807    -1.31715125     2.09308698
O                     3.39813432     2.36812948     3.00637485
O                     3.63392365     1.49375114     0.53671035
O                    -3.51954914    -0.11075506     4.24334131
O                    -2.87874359     6.12305309     1.99239477
O                     2.43645723     4.01500451     4.83192221
O                    -1.27355235     1.33957502     4.97536301
O                    -5.55778552    -3.60428656     1.43495183
O                    -2.97850364    -3.48789063     1.76957717
O                    -1.44129983    -4.97089599     3.33646174
O                     1.33912067     6.36371648     0.69559013
O                     1.72143624     4.25468694     2.29489934
O                     0.87304543     2.20346716     3.70938391
O                    -1.36939431     1.90516103     2.38835222
O                    -2.95659290     3.59717299     1.16016766
O                    -0.67307383     4.85003976     1.36460416
O                     1.16983642     3.95695815    -0.28302161
O                    -2.25057665     1.33385942    -0.02196704
O                    -1.62584197     4.68947556    -2.94875186
O                    -2.28797447     5.54071886    -0.53418159
O                    -0.57356872    -2.68923800     2.41836764
O                    -3.86981048     1.29748934     2.07801338
O                     5.76345107     1.64386101     1.98962604
H                     6.30937845     1.91931325     2.73107751
O                     5.56200034    -4.30411623     0.04371134
H                     6.50517206    -4.28318655     0.21591298
O                     6.71726588     0.39969555    -0.31856259
H                     6.50623212     0.90949991     0.48050624
O                     4.12016962    -2.32595119     4.01009681
H                     3.72988297    -3.00152723     4.56757710
H                    -3.16815787     7.10132789    -3.23243878
H                    -5.89329257    -1.37725496    -3.01221719
H                    -0.44073124     3.64720023    -5.53756961
H                    -2.21769177    -5.59971409    -4.64079916
H                     1.71713839     5.88008171    -2.45563704
H                     2.99730651    -3.88826071    -3.71784359
H                    -5.07165761    -4.67567776    -2.38371685
H                     0.33748839     6.72035814    -0.87160092
H                     7.20622709    -0.00455580    -3.17830562
H                     0.40860360    -7.43793269    -0.33051236
H                    -6.39660020     1.21213377     3.45335912
H                    -2.16858750     0.95815634     4.99499240
H                    -3.79860217     6.38682969     2.04912329
H                    -6.47659651    -3.33095011     1.41722352
H                    -3.42729761    -0.96013602     4.68952953
H                     1.98055260     3.91040133     5.67011129
H                     1.89966845     6.92734147     1.23431054
H                    -1.99957034    -5.73878340     3.47459615
C                    -1.54960137    -0.32238718    -6.00528751
C                    -0.58129456    -1.06304099    -5.09227920
O                    -1.20816047    -1.16766143    -3.74842111
C                    -0.20873731    -2.47065639    -5.54987604
H                    -1.72032546     0.67964050    -5.63538815
H                    -2.48962383    -0.85784466    -6.06693265
H                    -1.12458387    -0.25875907    -7.00036282
H                     0.29951846    -0.46674303    -4.91473481
H                    -1.89062743    -1.86279344    -3.56145231
H                    -1.08099898    -3.11177950    -5.54621509
H                     0.53491155    -2.90038216    -4.89112845
H                     0.19429567    -2.42634426    -6.55463218
