115

O                    -3.20345971     6.32505891    -3.31576171
Si                   -3.89098422    -2.53889162    -1.45782152
Si                    2.07345944    -3.66238834    -1.27429448
Si                    4.77627852    -2.79328211     0.02989369
Si                    5.76142918    -0.17156223    -1.44666516
Si                    1.26947851     3.48029791    -2.12292274
Si                    3.06248575     1.29012758    -1.06153219
Si                    0.71041039    -0.83814188    -0.58117273
Si                   -1.36936833     2.59202040    -3.61443474
Si                   -1.86596400    -4.89922064    -2.32452897
Si                   -0.01867246    -5.52530568     0.14425110
O                    -5.32157824    -2.71305009    -2.20030122
O                     3.60951202    -3.51727358    -0.83192833
O                     5.47672288    -1.64808634    -0.85179146
O                     4.09829469    -2.09446604     1.31603044
O                    -2.89271183    -3.73403379    -1.91297986
O                     0.11307738    -0.82313942     0.90475607
O                     1.33154086    -2.27900139    -0.89266663
O                     4.29525386     0.49953156    -1.70806447
O                     1.92319025    -3.87457772    -2.87751483
O                     6.57780288    -0.33628034    -2.82424402
O                    -0.68044221    -4.24830721    -3.23493819
O                     1.71125542     4.82714432    -2.88685509
O                     2.52575783     2.47417202    -2.00550808
O                     1.83177921     0.28230941    -0.77986617
O                    -0.46952034    -0.63878824    -1.71503838
O                    -1.98400450     1.10852475    -3.22701642
O                     0.06125716     2.73659807    -2.89584485
O                    -2.58143019    -6.07366901    -3.16415131
O                    -1.15843903    -5.49511069    -0.99868562
O                     0.29244088    -7.02893514     0.63347331
O                    -0.52158553    -4.68350531     1.41280935
O                    -1.24674621     2.56475048    -5.21318953
O                    -3.24282886    -1.11744955    -1.79572147
O                     1.31192438    -4.84824701    -0.48890619
Al                   -2.09572830     0.13382324    -1.70790146
H                    -0.19880320    -1.15260254    -2.72624011
Si                    0.37229225    -1.19934260     2.47241911
Si                    3.53782635    -1.29464584     2.59397451
Si                   -2.33137023     5.30569373    -2.42811984
Si                    4.01543604     1.79045581     1.89313758
Si                   -4.46440933    -0.05117163     2.89100291
Si                   -4.16987448    -2.99972293     1.70686264
Si                   -1.24582286    -3.90217465     2.62074738
Si                    0.44095063     4.83457889     0.57610344
Si                    1.82849464     3.65279428     3.16360595
Si                   -0.56951137     1.60154165     3.44405132
Si                   -2.58311969     1.77790161     1.06461010
Si                   -2.72399727     4.78263654     0.61077245
O                     1.94024984    -1.50890521     2.63645815
O                    -0.79693196     5.85318455    -2.33367519
O                     3.81516231     0.28361812     2.40868081
O                    -6.00417332     0.40946606     3.02589071
O                    -0.04340712     0.06909734     3.35926791
O                    -4.11518234    -2.70512767     0.13200403
O                    -4.41761582    -1.59206999     2.46247643
O                     3.17022073     2.83083762     2.77844033
O                     3.53303711     1.87002832     0.36524525
O                    -3.68044945     0.09613584     4.33274342
O                    -3.52464496     5.85164338     1.50521280
O                     2.13414482     4.67570034     4.36887391
O                    -1.58298170     1.80821565     4.66666967
O                    -5.33091944    -4.05621121     2.07620244
O                    -2.77294466    -3.61131271     2.21114464
O                    -1.14688441    -4.74031103     3.99244097
O                     0.75494562     6.33821520     0.01118546
O                     1.32410507     4.48188700     1.86886047
O                     0.68664061     2.60186691     3.58711782
O                    -1.28972386     1.90214935     2.02637060
O                    -3.20066479     3.26954769     0.89746754
O                    -1.13078308     4.83195437     0.89469612
O                     0.76479786     3.80135976    -0.61464891
O                    -2.19231154     1.14814809    -0.34291395
O                    -2.26482513     3.84211736    -3.12110329
O                    -2.94097356     5.15074125    -0.94405168
O                    -0.49799811    -2.49090226     2.83620624
O                    -3.68094388     0.89492882     1.86281455
O                     5.60464334     2.15054225     1.86244901
H                     6.15683451     2.39245887     2.61079492
O                     5.84722916    -3.88006371     0.55004546
H                     6.49969476    -4.34356590     0.02127645
O                     6.58593265     0.75160761    -0.42890224
H                     6.36941566     1.31212897     0.33247159
O                     4.24914121    -1.77093800     3.95492972
H                     4.37416547    -2.66607738     4.27464230
H                    -4.15515598     6.34920331    -3.42929685
H                    -5.63594299    -2.12522986    -2.89157254
H                    -1.05549737     3.25131879    -5.85113166
H                    -0.68039960    -3.31719072    -3.51876975
H                     1.03855760     5.50313175    -3.05160675
H                     1.11929989    -4.33370613    -3.20158985
H                    -3.38296190    -6.55122886    -2.94423513
H                    -0.40137028     6.37140415    -1.61022810
H                     7.13454707     0.33093710    -3.22955140
H                     0.73869822    -7.71980599     0.14079836
H                    -6.36755630     1.27186360     2.81650742
H                    -2.40958267     1.29024003     4.73175216
H                    -3.55359487     5.92704470     2.46019280
H                    -6.25736280    -3.99958856     1.83402024
H                    -3.72594822    -0.58889481     5.00931643
H                     1.86064468     4.57521422     5.28303623
H                     1.58885686     6.80991005     0.08569002
H                    -1.30254239    -5.67855263     4.11487787
C                    -1.66067834    -0.73944250    -4.97199458
C                    -0.21960667    -1.19018967    -5.11818576
O                     0.17306410    -1.76340962    -3.74449527
C                     0.06072963    -2.32501495    -6.10881108
H                    -1.90070021     0.41499039    -3.94260743
H                    -2.29596366    -1.61912172    -4.86130993
H                    -1.92966868    -0.23840115    -5.90459543
H                     0.44938787    -0.35584417    -5.27812863
H                     1.03843532    -2.21646753    -3.67996937
H                    -0.55002523    -3.18428531    -5.86126681
H                     1.10616610    -2.61928021    -6.11255514
H                    -0.20157280    -1.99107785    -7.10488009
