115

O                    -2.75158099     6.93142934    -2.60372090
Si                   -4.10350995    -1.93831563    -1.48750536
Si                    1.53679626    -3.86911253    -1.44646560
Si                    4.36457353    -3.24213479    -0.17361905
Si                    5.30947292    -0.75849025    -1.96058909
Si                    1.46839777     3.53274548    -2.09814188
Si                    2.81384216     0.88493512    -1.33865435
Si                    0.37244236    -1.00244090    -0.63729346
Si                   -1.40027341     2.96123676    -3.31987024
Si                   -2.37009015    -4.20777583    -2.56536632
Si                   -0.73278683    -5.55076455    -0.23874938
O                    -5.20385593    -2.45321551    -2.57907559
O                     3.04636069    -3.81510938    -0.91551736
O                     4.98480828    -2.07435515    -1.08279658
O                     3.91295467    -2.61819860     1.24027039
O                    -2.70928644    -2.73360285    -1.89435357
O                     0.21084676    -0.87822383     0.95106142
O                     0.77334550    -2.51177153    -0.97365972
O                     3.87648709     0.00811263    -2.16384702
O                     1.41957983    -3.93183679    -3.06074348
O                     5.90337054    -1.22472155    -3.38316874
O                    -1.21625020    -3.93997626    -3.66605040
O                     2.16302353     4.80211429    -2.80547918
O                     2.51187279     2.29732696    -2.02542357
O                     1.41495775     0.07031420    -1.18969721
O                    -1.12506495    -0.76469393    -1.34410136
O                    -2.06217379     1.71914262    -2.58034009
O                     0.15843127     3.04852201    -2.88743850
O                    -3.74112521    -4.76095458    -3.18382873
O                    -1.77934292    -5.16150521    -1.41116199
O                    -0.76836581    -7.12380711     0.09230779
O                    -1.10720082    -4.74418855     1.09503942
O                    -1.54036474     2.81585595    -4.92937179
O                    -3.76995375    -0.39232321    -1.59076733
O                     0.72511641    -5.09669499    -0.78535862
Al                   -2.38831105     0.61768084    -1.33096472
H                    -1.57745791    -1.59794214    -1.68624553
Si                    0.36252777    -1.43009117     2.47247911
Si                    3.50459438    -1.78107948     2.55205759
Si                   -1.88093966     5.72108178    -1.98592799
Si                    4.16984253     1.14706962     1.56165948
Si                   -4.99942183     0.22241321     2.91745418
Si                   -4.49134578    -2.65556116     1.58815608
Si                   -1.63196383    -3.89674257     2.36319783
Si                    0.91077012     4.79465624     0.74247444
Si                    2.26343332     3.12519540     2.89155149
Si                   -0.21608590     1.39553427     3.44720293
Si                   -2.73491553     1.97142744     1.59749324
Si                   -2.17935735     4.94287503     1.07024698
O                     1.89703088    -1.84446504     2.69867218
O                    -0.30753993     6.12815319    -1.99020365
O                     3.92617212    -0.23802588     2.33514958
O                    -6.56879746     0.53005697     2.65920112
O                    -0.05455000    -0.21362330     3.44313644
O                    -4.53120723    -2.39466970    -0.00862296
O                    -4.71301999    -1.25108637     2.33599111
O                     3.62917795     2.39123000     2.42904255
O                     3.41981374     1.07627369     0.14566961
O                    -4.62336230     0.27094048     4.49305054
O                    -2.68620218     6.09538262     2.07707795
O                     2.30466224     3.57461729     4.43634040
O                    -0.13854727     1.98437031     4.96429090
O                    -5.62232625    -3.72708044     2.00553925
O                    -3.06128697    -3.26457869     1.98096246
O                    -1.71490663    -4.82135678     3.67720756
O                     1.19035761     6.33947200     0.27752432
O                     1.95079445     4.36544500     1.89671580
O                     1.05869859     2.05212395     2.70732480
O                    -1.58258548     1.79460725     2.72237771
O                    -2.96017341     3.56192956     1.35936391
O                    -0.59563255     4.69761141     1.29785813
O                     1.06921277     3.87279005    -0.55882209
O                    -2.29522780     1.26476863     0.24175879
O                    -2.05172155     4.38602861    -2.87561380
O                    -2.34793128     5.40416789    -0.46694614
O                    -0.60443647    -2.69098913     2.65234917
O                    -4.09599608     1.32758501     2.17830358
O                     5.75580481     1.34908237     1.22621605
H                     6.41200240     1.69771747     1.83675506
O                     5.42873190    -4.41704125     0.10696241
H                     5.95324687    -4.89221737    -0.54021916
O                     6.33434151     0.22099475    -1.21806631
H                     6.26346083     0.68617441    -0.36706905
O                     4.24389816    -2.33109747     3.86795896
H                     4.35181933    -3.23970387     4.15338968
H                    -3.69366363     6.93568723    -2.78160530
H                    -5.89881821    -1.90442793    -2.95317645
H                    -1.64494419     3.54994408    -5.53868762
H                    -0.29976521    -4.27233570    -3.62713355
H                     1.64150290     5.60151329    -2.95417161
H                     1.33009598    -3.06515436    -3.54137497
H                    -4.54230649    -4.21999941    -3.24059412
H                     0.19730730     6.52187082    -1.25560415
H                     6.37546187    -0.66692725    -4.00439261
H                    -0.55792584    -7.85503322    -0.49058168
H                    -6.95869500     1.40580602     2.61642953
H                    -0.77189346     1.80911510     5.66540218
H                    -3.55375914     6.18490076     2.47399192
H                    -6.55716104    -3.69802401     1.79424935
H                    -4.86743656    -0.39123194     5.14363116
H                     1.63000077     3.25435805     5.05316235
H                     1.70073711     6.98385586     0.77571353
H                    -2.01427414    -5.73054453     3.73404698
C                    -0.61088708    -0.32343635    -5.64759718
C                     0.47718661    -0.41999730    -4.57820234
O                     0.41730132    -1.73170840    -3.92299366
C                     1.88252691    -0.27630920    -5.15083107
H                    -1.58514862    -0.53915048    -5.22022267
H                    -0.41519643    -1.02381259    -6.45143415
H                    -0.65613199     0.68498513    -6.03162042
H                     0.30910274     0.32767692    -3.82082860
H                    -0.43346393    -2.18466422    -4.03921091
H                     2.05890193    -1.05527601    -5.88321028
H                     2.62124817    -0.35907618    -4.36538734
H                     1.99203995     0.69045874    -5.62764237
