115

O                    -3.21330425     6.21699948    -3.42860659
Si                   -3.88931115    -2.57898980    -1.45672920
Si                    2.05489084    -3.69621807    -1.28225472
Si                    4.76240921    -2.83125217     0.01202279
Si                    5.75353358    -0.22080735    -1.47365385
Si                    1.25166301     3.40190287    -2.21461548
Si                    3.05659925     1.24761413    -1.11207836
Si                    0.70742718    -0.87310438    -0.56871286
Si                   -1.38811822     2.44228152    -3.67673132
Si                   -1.88715382    -4.95618241    -2.32027147
Si                   -0.02333876    -5.55744628     0.14823753
O                    -5.32799964    -2.76490369    -2.18280827
O                     3.59409515    -3.55265104    -0.85228669
O                     5.46930402    -1.69410423    -0.87274443
O                     4.08686460    -2.12596649     1.29551321
O                    -2.89729375    -3.77537170    -1.92388627
O                     0.11058930    -0.84084236     0.91283553
O                     1.31014719    -2.31790649    -0.88275379
O                     4.28740831     0.44299924    -1.74626036
O                     1.87657277    -3.88451336    -2.88739303
O                     6.57798422    -0.39295439    -2.84645260
O                    -0.71227239    -4.33332302    -3.26640374
O                     1.69689546     4.74253254    -2.98970991
O                     2.52215261     2.41031861    -2.07513684
O                     1.82789785     0.23776490    -0.80204011
O                    -0.49688458    -0.68759392    -1.69436497
O                    -2.00081303     1.02279664    -3.23594586
O                     0.06363000     2.63394579    -2.97965088
O                    -2.62556586    -6.14048674    -3.12479778
O                    -1.16232138    -5.53061641    -0.99496829
O                     0.28466334    -7.05982864     0.64271765
O                    -0.51851579    -4.70992842     1.41573134
O                    -1.23973118     2.40816110    -5.28932332
O                    -3.24691806    -1.16471331    -1.81639133
O                     1.30595164    -4.89002907    -0.49924225
Al                   -2.13560080     0.13054756    -1.74537510
H                    -0.26697912    -1.15592438    -2.61385129
Si                    0.37634312    -1.21242348     2.48069463
Si                    3.54235694    -1.30666017     2.56951703
Si                   -2.32921376     5.20531438    -2.53922787
Si                    4.01387408     1.77345049     1.83450089
Si                   -4.46474329    -0.07362701     2.90409548
Si                   -4.16019009    -3.02053593     1.71390791
Si                   -1.23535836    -3.92108126     2.62589998
Si                    0.43443960     4.78544887     0.47388060
Si                    1.82043024     3.64171941     3.08420170
Si                   -0.57387958     1.59243584     3.41864009
Si                   -2.60713165     1.74888511     1.05094176
Si                   -2.72913599     4.73968353     0.51461998
O                     1.94555222    -1.52122571     2.63216983
O                    -0.80248410     5.77654751    -2.43414682
O                     3.81598998     0.26845732     2.36022090
O                    -6.00650921     0.37434203     3.05819763
O                    -0.03969868     0.05977010     3.35964205
O                    -4.10089027    -2.74234971     0.13612819
O                    -4.41171449    -1.61420706     2.47025547
O                     3.16579457     2.81788027     2.71001854
O                     3.53029616     1.84106918     0.30737566
O                    -3.66179869     0.07972139     4.33436756
O                    -3.52416310     5.83870583     1.38103828
O                     2.12654954     4.68408449     4.27280365
O                    -1.57974904     1.80907683     4.64710715
O                    -5.31841073    -4.08014508     2.08632802
O                    -2.76075978    -3.62921742     2.21644975
O                    -1.13293509    -4.75620020     3.99864190
O                     0.75564475     6.28163402    -0.10380577
O                     1.31300645     4.44499958     1.77573764
O                     0.68273920     2.59606176     3.53365405
O                    -1.30750347     1.87162973     2.00570092
O                    -3.21509624     3.24249651     0.85975172
O                    -1.13551429     4.79043103     0.79959059
O                     0.76058769     3.73355738    -0.70075646
O                    -2.24398159     1.10026071    -0.35064488
O                    -2.24770194     3.74528606    -3.22420471
O                    -2.93408864     5.07613625    -1.04832012
O                    -0.48891716    -2.50818006     2.84015238
O                    -3.69889327     0.87309338     1.86551352
O                     5.60407853     2.13135214     1.80160316
H                     6.15613857     2.38170150     2.54689011
O                     5.82721854    -3.92141213     0.53692048
H                     6.48041753    -4.38683813     0.01076382
O                     6.56717550     0.71047862    -0.45589096
H                     6.34303360     1.27316511     0.29997743
O                     4.26867440    -1.76535673     3.92864520
H                     4.39567062    -2.65596109     4.26020735
H                    -4.16626939     6.21776288    -3.53570951
H                    -5.67162356    -2.15883429    -2.84343036
H                    -1.02770820     3.14358784    -5.86702244
H                    -0.72374158    -3.41001596    -3.57461116
H                     1.01944569     5.41387853    -3.15781487
H                     1.09104750    -4.37993776    -3.20337335
H                    -3.42474448    -6.60989223    -2.88033037
H                    -0.43024533     6.30544459    -1.70849069
H                     7.13483234     0.27443140    -3.25156050
H                     0.72718427    -7.75527268     0.15324756
H                    -6.37853428     1.23343243     2.85006996
H                    -2.40243214     1.28746696     4.72243914
H                    -3.54486309     5.93216901     2.33485428
H                    -6.24576745    -4.02237875     1.84798984
H                    -3.69260890    -0.60272247     5.01391566
H                     1.84841073     4.59735924     5.18704506
H                     1.59243779     6.74897099    -0.03819747
H                    -1.29118540    -5.69374754     4.12338801
C                    -1.63528227    -0.41238984    -4.75970174
C                    -0.16773375    -0.82935024    -4.74818598
O                     0.06618948    -1.48633992    -3.42117975
C                     0.21152692    -1.83923352    -5.82845369
H                    -1.86377241     0.33252548    -3.94640036
H                    -2.26018803    -1.29769976    -4.67487977
H                    -1.84652849     0.07238085    -5.70677122
H                     0.47476913     0.03848955    -4.78400628
H                     0.92274563    -1.95155546    -3.32746037
H                    -0.39938103    -2.72851135    -5.73123062
H                     1.25683923    -2.12281083    -5.76151466
H                     0.03931095    -1.40465951    -6.80490883
