115

O                    -3.04079749     6.48295263    -3.30013611
Si                   -3.84403460    -2.52453395    -1.70533229
Si                    2.09687213    -3.60171728    -1.24273966
Si                    4.74670260    -2.78781257     0.19366187
Si                    5.78333749    -0.12545245    -1.17106254
Si                    1.32154868     3.50894605    -2.05719694
Si                    3.06234192     1.32962152    -0.90650563
Si                    0.69576616    -0.80545045    -0.52048084
Si                   -1.28043558     2.61992288    -3.60679155
Si                   -1.77826619    -4.85408170    -2.54400738
Si                   -0.03940423    -5.51840363     0.00376248
O                    -5.24572078    -2.70319540    -2.50349473
O                     3.61644675    -3.47069379    -0.75030481
O                     5.48356561    -1.61274801    -0.61297327
O                     4.00784641    -2.14460955     1.47383377
O                    -2.82765075    -3.70594080    -2.16150482
O                     0.07005092    -0.81240811     0.94729951
O                     1.32356668    -2.24153783    -0.83841480
O                     4.32609491     0.53604850    -1.48921786
O                     1.98381284    -3.72728784    -2.86381702
O                     6.66320172    -0.26509389    -2.51326994
O                    -0.56061864    -4.18840231    -3.40771782
O                     1.80220108     4.87574105    -2.75892790
O                     2.58896271     2.51856383    -1.86835978
O                     1.81438829     0.31589094    -0.70463548
O                    -0.47573392    -0.60345291    -1.68241292
O                    -2.00448101     1.31950818    -3.04458671
O                     0.18146042     2.75603976    -2.90490285
O                    -2.45757932    -6.02105818    -3.42244582
O                    -1.10474103    -5.45931943    -1.20663830
O                     0.23894776    -7.03338615     0.47461777
O                    -0.60513135    -4.70219907     1.26114217
O                    -1.11135289     2.49741144    -5.21679186
O                    -3.19572178    -1.10128942    -2.00303394
O                     1.32421896    -4.83101916    -0.54574452
Al                   -2.13126643     0.21253314    -1.73789423
H                    -0.18947585    -1.03405452    -2.59376910
Si                    0.25026563    -1.24760311     2.50917238
Si                    3.40653410    -1.35001812     2.73786364
Si                   -2.17597026     5.40868136    -2.46530226
Si                    3.88741914     1.75187984     2.09753503
Si                   -4.62432344    -0.15830790     2.82486510
Si                   -4.25278890    -3.02770323     1.44338649
Si                   -1.37263874    -3.95588210     2.46722137
Si                    0.38724894     4.78862433     0.65359443
Si                    1.63770456     3.57077912     3.29844909
Si                   -0.77106186     1.50772390     3.53505168
Si                   -2.75991595     1.72134948     1.09927846
Si                   -2.76188705     4.73414347     0.53409954
O                     1.80911709    -1.56928873     2.73285799
O                    -0.66475219     5.98186050    -2.24246831
O                     3.68432364     0.22785470     2.56089741
O                    -6.16951844     0.21118269     3.10276189
O                    -0.21179175    -0.01262711     3.41594252
O                    -4.12445225    -2.73146598    -0.12689190
O                    -4.53611793    -1.63949750     2.21976683
O                     3.00297523     2.75300699     2.98667299
O                     3.45318316     1.87426365     0.55817398
O                    -3.75353080    -0.13020337     4.22278956
O                    -3.61338472     5.80459019     1.38457036
O                     1.87655497     4.59757134     4.51595564
O                    -1.75446163     1.66268387     4.79390809
O                    -5.42379217    -4.09575372     1.74763093
O                    -2.87630685    -3.64410689     1.99910458
O                    -1.33579383    -4.84146391     3.81151606
O                     0.73517008     6.31116359     0.16545831
O                     1.21574171     4.39244284     1.97221292
O                     0.47638308     2.52123979     3.66776748
O                    -1.53837561     1.82687069     2.15329812
O                    -3.27424426     3.22943991     0.79295648
O                    -1.19173213     4.77111041     0.93161390
O                     0.74560212     3.79500451    -0.56080361
O                    -2.31532869     0.98149102    -0.22857470
O                    -2.04324141     4.01587947    -3.26491425
O                    -2.85160971     5.13971229    -1.02210716
O                    -0.63237853    -2.55624835     2.76997926
O                    -3.95506850     0.92869500     1.85772699
O                     5.47490203     2.12360506     2.13508696
H                     5.99064650     2.37006704     2.90734336
O                     5.79364552    -3.89702841     0.71239383
H                     6.49178814    -4.31411772     0.20388909
O                     6.55098734     0.78675357    -0.10228522
H                     6.28920408     1.32547880     0.65964807
O                     4.07839169    -1.82735864     4.11829546
H                     4.17320580    -2.72084335     4.45280006
H                    -3.99573713     6.51167709    -3.38487806
H                    -5.58512612    -2.05129978    -3.12157789
H                    -1.08132145     3.23735031    -5.82730413
H                    -0.58579252    -3.28062671    -3.75237637
H                     1.13732035     5.56545116    -2.90855202
H                     1.22665605    -4.23477675    -3.22972764
H                    -3.30389344    -6.44791031    -3.27911526
H                    -0.31825430     6.44897030    -1.46294381
H                     7.24084588     0.41057889    -2.87332625
H                     0.67111531    -7.73082885    -0.02105476
H                    -6.59094341     1.05806097     2.94527124
H                    -2.57738765     1.13945109     4.82092109
H                    -3.75285095     5.82191725     2.33275441
H                    -6.34185270    -4.03222964     1.47706414
H                    -3.68904173    -0.89739349     4.80233693
H                     1.56387564     4.48940388     5.41667274
H                     1.52814673     6.81052237     0.37583718
H                    -1.50783205    -5.78114974     3.89529050
C                    -0.79252955    -0.68036140    -5.61355022
C                     0.58143489    -0.81568908    -4.97196576
O                     0.39843648    -1.66384649    -3.76273222
C                     1.61236818    -1.48349654    -5.87847049
H                    -1.49704103    -0.27162186    -4.90491192
H                    -1.13539005    -1.64687511    -5.96384142
H                    -0.73939829     0.01082327    -6.44256037
H                     0.93237719     0.14675103    -4.63106193
H                     1.17704829    -2.22000579    -3.53627520
H                     1.25976707    -2.46194952    -6.18246471
H                     2.56663855    -1.59539373    -5.37623299
H                     1.76324420    -0.87875623    -6.76377855
