115

O                    -1.91140064     6.82118565    -3.32845650
Si                   -3.46182450    -2.03278095    -2.33337975
Si                    2.00423333    -3.91168277    -0.88768796
Si                    4.44118649    -3.21309636     1.00948442
Si                    5.79022773    -0.76950605    -0.56011269
Si                    2.05633058     3.46648576    -1.71167709
Si                    3.20766733     0.85125999    -0.58924375
Si                    0.67305253    -1.03818004    -0.46447893
Si                   -0.40793690     2.83499814    -3.59520638
Si                   -1.50362939    -4.29923941    -2.92430693
Si                   -0.48352209    -5.58746005    -0.24092011
O                    -4.26565601    -2.58136084    -3.64506963
O                     3.33267962    -3.82237398     0.00158373
O                     5.25905522    -2.07519954     0.22799401
O                     3.67070629    -2.54200629     2.25401107
O                    -2.00506260    -2.81784526    -2.38338886
O                     0.13738359    -0.87165453     1.03620548
O                     1.13400174    -2.55638757    -0.65192300
O                     4.45096801    -0.01322073    -1.12330381
O                     2.29262186    -4.00889738    -2.47869249
O                     6.71884936    -1.25295475    -1.78340932
O                    -0.11611486    -4.03817989    -3.71306299
O                     2.89165209     4.72730127    -2.26386204
O                     3.06505125     2.25787703    -1.33556217
O                     1.82347544     0.02062939    -0.77648171
O                    -0.60984608    -0.82205494    -1.51619143
O                    -1.25026474     1.62400955    -2.99862382
O                     0.99135704     2.92864891    -2.78460914
O                    -2.67783472    -4.87520453    -3.85024077
O                    -1.20691230    -5.22773455    -1.64366393
O                    -0.59689968    -7.15377800     0.10456410
O                    -1.17798824    -4.75610155     0.94053405
O                    -0.13243291     2.64061503    -5.18192229
O                    -3.12646730    -0.48457627    -2.38159455
O                     1.06471447    -5.13672334    -0.41887166
Al                   -1.84879409     0.54632587    -1.83194408
H                    -0.96216737    -1.66547883    -1.94163009
Si                   -0.08136418    -1.39487463     2.55923656
Si                    2.94811612    -1.70004361     3.41873846
Si                   -1.20113276     5.62760676    -2.50829756
Si                    3.81638977     1.20070106     2.54670654
Si                   -5.42418410     0.22443391     1.63083576
Si                   -4.57737595    -2.68556897     0.57503305
Si                   -1.98067750    -3.88564784     2.03555388
Si                    0.81148910     4.80398997     0.86167916
Si                    1.62919126     3.19261044     3.30879366
Si                   -0.89638120     1.43998230     3.30467320
Si                   -2.89470813     1.95925273     0.89236046
Si                   -2.25922849     4.93042991     0.39955806
O                     1.35417638    -1.77782659     3.16735811
O                     0.32632052     6.04830004    -2.14174659
O                     3.39822849    -0.15378364     3.30034693
O                    -6.85998731     0.50117781     0.93328561
O                    -0.73714603    -0.16756603     3.37260520
O                    -4.22650853    -2.46676914    -0.98971125
O                    -4.97948169    -1.26350505     1.20532689
O                     3.07372998     2.47280506     3.19818288
O                     3.43140585     1.05404708     0.99710690
O                    -5.50474761     0.32996169     3.24592509
O                    -3.05932213     6.13093765     1.11850617
O                     1.29700891     3.67291664     4.80908842
O                    -1.17894545     2.05560825     4.78761331
O                    -5.77352470    -3.75639770     0.73165794
O                    -3.28657319    -3.27131961     1.32414670
O                    -2.36021096    -4.78158864     3.31689679
O                     1.20255318     6.33506802     0.43372592
O                     1.54428373     4.41009842     2.24326593
O                     0.51359072     2.09531208     2.87345154
O                    -2.05644825     1.81687583     2.27284138
O                    -3.06018820     3.54237312     0.57498555
O                    -0.78496875     4.72078873     1.04996129
O                     1.27367590     3.84394057    -0.33558894
O                    -2.13105034     1.22697635    -0.29534255
O                    -1.13854271     4.27492800    -3.38473173
O                    -2.01438602     5.32486463    -1.14044506
O                    -1.04513140    -2.66980561     2.52504123
O                    -4.35441615     1.31598732     1.13420458
O                     5.43504791     1.41416484     2.59501561
H                     5.92606315     1.78060454     3.33625747
O                     5.40922851    -4.36849259     1.57490787
H                     6.09549771    -4.83671378     1.09582769
O                     6.59815925     0.22483189     0.39894611
H                     6.31622181     0.71225382     1.19163138
O                     3.34593466    -2.23319773     4.88100480
H                     3.36182517    -3.13675281     5.20054961
H                    -2.84199611     6.89979841    -3.54594192
H                    -4.87803456    -2.05737538    -4.16901778
H                    -0.25222953     3.32813078    -5.84092605
H                     0.76233076    -4.36784970    -3.44606932
H                     2.41141107     5.50726999    -2.57164726
H                     2.32329337    -3.15254602    -2.98448400
H                    -3.44781260    -4.34517436    -4.10308015
H                     0.62700179     6.47259549    -1.31794066
H                     7.33096896    -0.70423896    -2.27730114
H                    -0.21999722    -7.89244100    -0.37619780
H                    -7.21975570     1.36975564     0.74022223
H                    -1.92850159     1.83729387     5.34806773
H                    -3.63626065     6.06818685     1.88142194
H                    -6.62381160    -3.74682707     0.28859600
H                    -5.92264805    -0.31155926     3.82482429
H                     0.50349879     3.34498842     5.25751903
H                     1.61200467     6.98554897     1.01070434
H                    -2.67892006    -5.68599620     3.32482639
C                     0.97040735    -0.48875962    -5.58132114
C                     1.76258612    -0.54212449    -4.27505868
O                     1.53067339    -1.82670355    -3.60288008
C                     3.26675599    -0.42228990    -4.49322429
H                    -0.08121903    -0.68578187    -5.39854820
H                     1.35006511    -1.22136061    -6.28431442
H                     1.03295961     0.50318258    -6.00415624
H                     1.42303592     0.23559971    -3.61115994
H                     0.73473004    -2.28761330    -3.91368226
H                     3.60850869    -1.23298967    -5.12594579
H                     3.79134627    -0.46859029    -3.54875235
H                     3.49793630     0.52231863    -4.97090874
