115

O                    -3.04963071     6.46833762    -3.40022612
Si                   -3.42007728    -2.63177307    -1.61259999
Si                    2.26141354    -3.58454433    -1.08561760
Si                    4.86664218    -2.52185051     0.38266016
Si                    5.85650566     0.05481472    -1.14108690
Si                    1.28524002     3.50964333    -2.02768293
Si                    3.02118002     1.26952913    -0.89039297
Si                    0.63978413    -0.88847245    -0.72888357
Si                   -1.29043970     2.57737496    -3.61179815
Si                   -1.29074436    -4.67281926    -2.46121891
Si                    0.25381466    -5.64016090     0.04980555
O                    -4.37758062    -3.48613719    -2.64144627
O                     3.70299742    -3.17164739    -0.53803205
O                     5.65422475    -1.39513281    -0.44361644
O                     4.14948420    -1.82246217     1.64488363
O                    -2.00063604    -3.42154817    -1.73406263
O                     0.16299156    -1.01187098     0.80717844
O                     1.26837588    -2.32563437    -1.15679536
O                     4.35696113     0.59576067    -1.47462160
O                     2.39791689    -4.16852478    -2.62011297
O                     6.71135016    -0.15811624    -2.49162870
O                    -0.11272062    -4.05162391    -3.43908513
O                     1.78022987     4.80463413    -2.84669147
O                     2.52846511     2.50829408    -1.78016248
O                     1.83484109     0.18523395    -0.80586891
O                    -0.58074861    -0.52833294    -1.70667281
O                    -2.12207857     1.34781361    -3.05631399
O                     0.11223713     2.73167401    -2.80547065
O                    -2.40308471    -5.45487256    -3.31883003
O                    -0.55684023    -5.58733885    -1.35420751
O                     0.62238830    -7.15935753     0.42570098
O                    -0.60836894    -5.00377870     1.23844616
O                    -0.97838683     2.30480807    -5.18897212
O                    -3.26917456    -1.11708509    -2.05399979
O                     1.57814837    -4.73249322    -0.18933306
Al                   -2.20203500     0.22316850    -1.75142125
H                    -0.43421931    -1.11503107    -3.09081591
Si                    0.28335686    -1.36070001     2.37607616
Si                    3.42698552    -1.13042228     2.90642352
Si                   -2.16015636     5.39375189    -2.59246747
Si                    3.88533019     1.88354435     2.12233764
Si                   -4.46509681    -0.16846443     2.90647092
Si                   -4.09007894    -3.03160934     1.48742711
Si                   -1.24724593    -4.13833431     2.43933539
Si                    0.27076851     4.88086004     0.64209820
Si                    1.52545096     3.48337772     3.11502517
Si                   -0.75709895     1.39055324     3.22744801
Si                   -3.03462242     1.75106403     1.03685887
Si                   -2.84546488     4.74122691     0.42990859
O                     1.84084540    -1.39378654     2.77682678
O                    -0.66403334     5.99933332    -2.35917689
O                     3.72684697     0.45374956     2.84069421
O                    -5.94753580    -0.05435634     3.53151201
O                    -0.49764180    -0.21542809     3.20560627
O                    -3.95549145    -2.79523765    -0.09864834
O                    -4.26508034    -1.60692148     2.22264226
O                     3.06836449     3.03048647     2.90710323
O                     3.36334850     1.75205200     0.61421036
O                    -3.32337565    -0.01438769     4.07377415
O                    -3.69287851     5.88223173     1.18838476
O                     1.25690698     4.06725435     4.59301433
O                    -1.22432812     1.87935397     4.70235270
O                    -5.33636564    -3.99495390     1.82959592
O                    -2.74523053    -3.71322157     2.04559131
O                    -1.21042339    -4.97027329     3.81747176
O                     0.52423840     6.41849135     0.14331374
O                     1.11715666     4.55786283     1.97534464
O                     0.63628873     2.14546057     2.92204858
O                    -1.80969326     1.77632421     2.09396654
O                    -3.46679569     3.28611010     0.74082854
O                    -1.30207581     4.71777496     0.92734407
O                     0.71589986     3.92296721    -0.56191211
O                    -2.58872083     0.98620611    -0.27007809
O                    -2.01842861     4.02362889    -3.43082360
O                    -2.80626319     5.07539592    -1.14403114
O                    -0.38120065    -2.79390941     2.64769607
O                    -4.25086749     1.00656034     1.82203283
O                     5.46552279     2.29274420     2.02804915
H                     5.95994491     2.74917615     2.71510528
O                     5.86357378    -3.70329356     0.83345542
H                     6.80659787    -3.62800655     1.00059341
O                     6.60645725     1.08723078    -0.17471708
H                     6.30734293     1.59210189     0.60099264
O                     3.97707059    -1.71105539     4.30212897
H                     3.55847321    -2.35864634     4.87284452
H                    -3.93864316     6.34608026    -3.73800217
H                    -5.21893936    -3.16335656    -2.97919257
H                    -0.51620134     2.91580453    -5.76824145
H                     0.84918911    -4.24583206    -3.32509773
H                     1.13746701     5.51400640    -3.00273089
H                     3.24210472    -4.29645102    -3.06532891
H                    -3.31784318    -5.12748167    -3.31516911
H                    -0.33842131     6.46901734    -1.57145692
H                     7.25259348     0.51378606    -2.91090588
H                     0.83891811    -7.87916617    -0.16917203
H                    -6.52278218     0.71150585     3.48380799
H                    -2.07671004     1.57294585     5.04107800
H                    -4.25763973     5.77657295     1.95500432
H                    -6.24830788    -3.74064321     1.98060698
H                    -2.66833074    -0.70170525     4.24612579
H                     0.59312273     3.68540565     5.18076048
H                     0.94624621     7.11658003     0.65048436
H                    -1.39512961    -5.90248616     3.94395615
C                    -2.28619033    -1.53352821    -5.42464531
C                    -0.83979655    -1.08916940    -5.24152727
O                    -0.33881915    -1.63216149    -3.94138921
C                     0.10570835    -1.61260691    -6.31404713
H                    -2.88882449    -1.19340742    -4.59468292
H                    -2.34786641    -2.61425594    -5.49424108
H                    -2.67711564    -1.10326734    -6.33863045
H                    -0.77711890    -0.02068480    -5.14229166
H                    -0.25913295    -2.65496249    -3.80637901
H                     0.07341767    -2.69545393    -6.35125032
H                     1.12037455    -1.29542198    -6.11122736
H                    -0.19544158    -1.22461356    -7.27898405
