103

O                    -3.62505304     5.90244897    -2.75292388
Si                   -4.05843083    -1.77574288    -1.64118904
Si                    1.77553431    -3.81088077    -1.63587716
Si                    4.46849719    -3.14534814    -0.20021349
Si                    5.35137295    -0.76629649    -2.10588666
Si                    1.69009848     3.61031704    -2.22683568
Si                    3.09168933     1.04892063    -1.27875292
Si                    0.78212680    -1.02602937    -0.90076856
Si                   -1.09660738     2.74578525    -3.35964043
Si                   -2.95674088    -4.48281446    -2.56080170
Si                   -0.67847982    -5.32190709    -0.57897461
O                    -5.51098562    -1.52671331    -2.25232780
O                     3.16433877    -3.76715163    -0.85335384
O                     4.93241010    -1.85250781    -1.00912105
O                     4.20126889    -2.73443036     1.31450385
O                    -3.35274153    -2.95533604    -2.43976765
O                     0.91523876    -1.29864881     0.67425426
O                     1.13983234    -2.35300616    -1.71326581
O                     4.25654037     0.38719195    -2.14317338
O                     1.99117917    -4.31719523    -3.12826624
O                     5.42586067    -1.39483083    -3.56373246
O                    -2.71381020    -4.81189137    -4.10919104
O                     2.39316931     4.71323946    -3.13959678
O                     2.75856841     2.47828108    -1.91363236
O                     1.77852316     0.14319661    -1.32942474
O                    -0.71041491    -0.60587859    -1.25432710
O                    -1.56918986     1.32404243    -2.80332960
O                     0.44156726     2.98483428    -3.00560271
O                    -4.12590926    -5.41090754    -1.96145736
O                    -1.62102936    -4.74309459    -1.72554998
O                    -0.67580164    -6.90935319    -0.59718970
O                    -1.19308355    -4.82014345     0.83988769
O                    -1.29028488     2.73532598    -4.95056412
O                    -3.22069087    -0.43170268    -1.81517596
O                     0.80775981    -4.80595322    -0.83875056
Al                   -1.89668371     0.41156096    -1.53284394
H                    -1.15480548    -1.47252232    -1.36320982
Si                    0.77004015    -1.70024727     2.22368404
Si                    3.78557721    -1.83176895     2.56060260
Si                   -2.23973538     5.36195098    -2.16992248
Si                    4.23835170     1.15627897     1.68856017
Si                   -5.06392513     0.33489089     2.21837267
Si                   -4.07051817    -2.44996046     1.48326460
Si                   -1.39170688    -3.88755064     2.11533941
Si                    1.10864304     4.87672847     0.60593471
Si                    2.07935171     2.93114350     2.77078373
Si                   -0.33164985     1.00682493     3.14329704
Si                   -2.60991099     1.84591721     1.16147013
Si                   -1.97944263     4.86268423     0.90034178
O                     2.22259494    -1.94927683     2.83482280
O                    -1.04288314     6.28715387    -2.67955420
O                     4.19886771    -0.32988318     2.27230875
O                    -6.45273002     0.29116138     1.43584942
O                     0.06435072    -0.52065382     3.02226316
O                    -4.20362971    -2.17734080    -0.09175824
O                    -4.42822360    -1.12298408     2.29576140
O                     3.44892060     2.13242951     2.66624050
O                     3.55831912     1.21448768     0.23736443
O                    -5.27956998     0.84120536     3.71076174
O                    -2.58183809     5.91137994     1.93443344
O                     2.02092459     3.57803771     4.23173435
O                    -0.57458107     1.33590111     4.69168665
O                    -5.06691428    -3.61918660     1.91192023
O                    -2.57797588    -2.87011143     1.83682201
O                    -1.71920087    -4.80003183     3.38582557
O                     1.59725165     6.39187021     0.58372121
O                     2.03012429     4.06295465     1.62803089
O                     0.83751837     1.93491774     2.54395282
O                    -1.66736124     1.26710467     2.30804557
O                    -2.61258918     3.43336333     1.17968522
O                    -0.40546085     4.78496660     1.11612850
O                     1.17996274     4.26605519    -0.86405328
O                    -2.09530715     1.34415368    -0.25739219
O                    -1.98644102     3.88858364    -2.69497405
O                    -2.31879903     5.36950510    -0.57370566
O                    -0.06769982    -3.04428709     2.39767146
O                    -4.09615028     1.32996364     1.42124601
O                     5.80729689     1.61111904     1.46092566
H                     6.35827127     1.69591779     2.22527460
O                     5.61178702    -4.32410101    -0.27398443
H                     6.44569205    -4.15781541     0.13842627
O                     6.82137058    -0.12952493    -1.71863962
H                     6.85906980     0.47232953    -0.98718291
O                     4.60960395    -2.30195162     3.90195336
H                     4.31047649    -3.07749868     4.35219838
H                    -4.39538906     5.36077945    -2.68956627
H                    -5.57154082    -0.89902611    -2.95590221
H                    -0.95480585     3.45127442    -5.46529332
H                    -2.27262608    -4.18931578    -4.66523635
H                     1.91959943     5.51608028    -3.29707994
H                     2.74304633    -4.04157778    -3.63005659
H                    -4.93254786    -5.51191916    -2.44246549
H                    -0.97818773     7.17953452    -2.37622865
H                     5.86720119    -0.91683990    -4.24888512
H                    -0.26943524    -7.37686653    -1.30930027
H                    -6.46048445     0.35562201     0.49312317
H                    -1.32889131     0.97282588     5.13066751
H                    -3.50585362     6.10007894     1.91492086
H                    -5.99881831    -3.50520786     1.81092003
H                    -5.80794127     1.60766053     3.86615104
H                     1.35642980     3.29912729     4.84462077
H                     1.84033929     6.80748858     1.39598714
H                    -2.43923715    -5.41023513     3.33916523
