115

O                    -2.86658651     6.13258680    -3.64011919
Si                   -3.45801864    -2.70031164    -1.78064072
Si                    2.46860073    -3.73344427    -1.02522501
Si                    5.01152240    -2.75345149     0.54061864
Si                    6.10425068    -0.16188058    -0.94263603
Si                    1.54502694     3.28502702    -2.08257339
Si                    3.34157208     1.18080948    -0.85065991
Si                    0.96751964    -0.95390843    -0.46564996
Si                   -0.99524350     2.42072821    -3.68700004
Si                   -1.26162650    -4.94966543    -2.46082594
Si                    0.30444387    -5.55775276     0.22217751
O                    -4.81988401    -2.97556749    -2.62194572
O                     3.93793879    -3.48229440    -0.41580821
O                     5.77456519    -1.58404182    -0.25727051
O                     4.22744942    -2.07442135     1.77794578
O                    -2.37820137    -3.81249295    -2.21423549
O                     0.38987238    -0.90791838     1.03821824
O                     1.58653505    -2.40995755    -0.71483664
O                     4.66573505     0.46728326    -1.39594018
O                     2.53595107    -4.01393723    -2.60552559
O                     7.05512886    -0.40638613    -2.21931404
O                    -0.01800654    -4.31661261    -3.27470746
O                     1.95825989     4.59278235    -2.92375527
O                     2.81551924     2.33241443    -1.85104601
O                     2.14375967     0.13047201    -0.65120725
O                    -0.20714379    -0.65393286    -1.52389147
O                    -1.77713504     0.98238028    -3.30906786
O                     0.38922548     2.46842586    -2.89522333
O                    -1.87052315    -6.18930533    -3.29683225
O                    -0.70953822    -5.45626215    -1.02768484
O                     0.47484442    -7.08391564     0.72161232
O                    -0.29712606    -4.71113589     1.44799257
O                    -0.83697652     2.27589850    -5.28178908
O                    -2.92977863    -1.21537471    -2.07263199
O                     1.72493012    -4.94503403    -0.24360757
Al                   -1.78944821     0.00543369    -1.72658092
H                     0.22887972    -1.36392321    -3.03606287
Si                    0.47034589    -1.23014665     2.62413482
Si                    3.60325735    -1.23202292     2.99475889
Si                   -2.01594919     5.19361113    -2.65105667
Si                    4.04390198     1.82365418     2.15129678
Si                   -4.52913055    -0.15436763     2.53373352
Si                   -3.94710391    -3.08987942     1.37900289
Si                   -1.11737277    -3.94793037     2.59869227
Si                    0.54987594     4.78798272     0.48116704
Si                    1.70706168     3.66553683     3.15262992
Si                   -0.70353251     1.55294141     3.33436497
Si                   -2.69124085     1.74434734     0.85700637
Si                   -2.60682208     4.76324461     0.37987346
O                     2.01098511    -1.47741493     3.01047108
O                    -0.49648635     5.75746520    -2.50869325
O                     3.85171746     0.34241350     2.73170309
O                    -6.11176006     0.09407644     2.73033452
O                    -0.10704045     0.05128903     3.40535021
O                    -3.75017690    -2.86868855    -0.19837679
O                    -4.28972371    -1.65994666     2.05148102
O                     3.09564417     2.86952207     2.92171920
O                     3.67960853     1.82209722     0.58984756
O                    -3.71138432     0.05401447     3.94753651
O                    -3.39902695     5.90149395     1.19154348
O                     1.82394822     4.65210307     4.41784766
O                    -1.70337900     1.85385249     4.55782263
O                    -5.12291481    -4.15042616     1.68375324
O                    -2.59714308    -3.64019470     2.04309173
O                    -1.16537367    -4.81408318     3.95652436
O                     0.85650912     6.26615148    -0.15774799
O                     1.38116165     4.54306018     1.82774508
O                     0.51993185     2.60366614     3.35688183
O                    -1.48856577     1.68436723     1.92968301
O                    -3.16561258     3.28852189     0.68957769
O                    -1.02911170     4.74745546     0.74497355
O                     0.93692415     3.69378956    -0.63861429
O                    -2.22474312     1.14922042    -0.54382379
O                    -1.87611329     3.69080737    -3.26576038
O                    -2.69996128     5.09836697    -1.19872283
O                    -0.40180146    -2.54020053     2.92961886
O                    -3.92885594     0.91659486     1.49830042
O                     5.61624345     2.24838008     2.22584326
H                     6.10256697     2.51186338     3.01100944
O                     6.06412122    -3.81838659     1.14316414
H                     6.79244046    -4.22524514     0.66963049
O                     6.82055146     0.85318146     0.07190379
H                     6.51743540     1.41071994     0.80373112
O                     4.28315309    -1.61137488     4.40349596
H                     4.40962578    -2.48970808     4.76840093
H                    -3.81903502     6.17355569    -3.74053846
H                    -5.42499453    -2.29378891    -2.91846908
H                    -0.31052998     2.79314692    -5.89156649
H                     0.01830427    -3.38684369    -3.62935135
H                     1.29192381     5.26972676    -3.11438663
H                     1.73759063    -4.36266461    -3.05005126
H                    -2.67255252    -6.68121231    -3.11635642
H                    -0.12689571     6.25929605    -1.75895008
H                     7.69421738     0.21896032    -2.56511256
H                     0.95433736    -7.77998513     0.26843644
H                    -6.58131604     0.91524756     2.57093750
H                    -2.56823860     1.40308942     4.56602428
H                    -3.38873530     6.07955739     2.13355409
H                    -6.04317873    -4.09832364     1.42168002
H                    -3.55748899    -0.68081160     4.55228618
H                     1.48743138     4.49944566     5.30281365
H                     1.68002916     6.75406458    -0.05734780
H                    -1.31204465    -5.75896810     4.03239457
C                    -3.88389628     0.05123120    -5.43281214
C                    -2.77676396    -0.41994094    -5.98636795
O                     0.44659347    -1.82548997    -3.87113210
C                    -2.28804015    -1.83952163    -5.87258813
H                    -2.27886118     0.53281767    -4.04809718
H                    -4.53679484    -0.56968760    -4.84858246
H                    -4.19299104     1.06663571    -5.60050005
H                    -2.16527303     0.24857637    -6.56432558
H                     1.40485845    -1.84730351    -4.00994352
H                    -2.94343225    -2.43146016    -5.24621429
H                    -1.28715803    -1.87169627    -5.46002014
H                    -2.25380679    -2.29653328    -6.85744614
