120

Si -4.4316043574 8.6973053193 5.9698378873
Si 3.7751082663 7.424247636 4.359931146
O 2.4751842714 6.8920842284 3.6243628095
O 3.9208843593 6.6217286275 5.7152903837
O 3.6413960312 8.9754136301 4.6925542471
O -3.7439424825 9.8759369794 5.164483691
Si 3.7463550127 10.5538142298 4.497632622
O 2.4550768296 11.1084407222 3.7513696071
O 3.8082844786 11.2555467778 5.9305327466
Si -1.5973079838 8.8370549947 10.9613247691
Si -3.7463550127 9.3252857702 8.871467378
Si -6.1214059664 8.8293022849 10.873223082
Si 1.4995877995 6.530681932 15.7848964235
Si 3.7751082663 7.424247636 17.729031146
Si 4.5592846435 6.4428166678 7.165436166
Si -2.391739726 3.5054801759 12.909737831
Si 7.661810274 6.4340698241 7.143912169
Si 6.2173164312 6.6539326701 15.854683072
Si 8.6132784069 8.805845086 8.8963342115
Si 6.2808548672 9.4038082152 10.8538378602
Si 5.5704710845 8.7247383978 13.76215154
Si 2.4440180251 8.6599322137 13.8209755533
Si 3.7674673672 8.7026722588 9.125346333
Si 1.5303514815 3.4200000857 15.8534798129
Si -5.4916508705 6.5815728057 12.7530519656
Si 4.5618991295 3.3579771943 7.3005980344
Si -2.3861092956 6.5587116022 12.8519829847
Si -1.4613839476 7.3389666151 15.7430508865
O -2.4550768296 8.7706586815 9.6177303929
O -3.8082838955 8.6235532222 7.4385672534
O -5.0609567483 8.9913171685 9.6899235597
O 2.4751842714 6.8920842284 16.9934628095
O 6.1125588021 6.8423865182 7.1070135333
O -1.7794788125 3.3575802484 14.3757932434
O 5.0609567483 7.2041857406 16.8129802803
O 3.6413960312 8.9754136301 18.0616542471
O -1.7191570902 7.4486989688 11.7260374897
O 2.1655344689 9.8580457894 14.8503966543
O 1.9664741186 7.2757505404 14.4573444325
O 4.0274519893 2.5803073192 8.5789518577
O -6.0260983124 7.3592423827 11.4746981423
O -5.8330692676 9.8878640617 12.0428851463
O 6.136686538 7.4049647898 14.4546709735
O 1.5301501491 4.9677867521 15.4907760229
O 6.0582690088 5.0989892693 15.566979786
O 4.379326199 4.9200772898 7.5883013204
O -2.2137923333 5.0214609383 12.4372736899
O 7.6386874509 8.951558889 10.1498204125
O 6.3196615501 8.9058370783 12.3610699268
O 4.0033236703 8.583795539 13.49476954
O 1.6326966004 8.9018611788 12.4747070095
O 2.42491626 8.6493961913 9.9907288177
O 5.0368284294 8.7487921883 10.0923333092
O -3.9430022497 6.9318419116 13.0081341663
O -1.652803439 6.8403982702 14.2421022701
O -2.4771946999 6.6038368411 16.7167227336
O -1.7111141095 8.9078241335 15.8209926058
O 8.4168319193 7.3830977201 8.1752049842
O -1.636718684 2.5564522799 11.8784450158
O 2.1353742211 2.6240417765 14.5896989771
O 3.8203489598 7.377134169 8.22600723
O -0.0784175291 9.0966761202 10.5562415605
O 0.02613923 6.9954549123 16.2033493604
Al 1.426799816 9.4057964632 10.9835181302
H 0.7542480155 8.5216997761 12.6849810141
Si 1.5973079838 11.0420444089 15.7768752309
Si 3.7463550127 10.5538142298 17.866732622
Si 4.4316049606 11.1817946807 7.3992621127
Si 7.5612748545 11.178614462 7.1757308008
Si 6.1214059664 11.0497983115 15.864976918
Si -1.4995877995 13.348418068 10.9533035765
Si -3.7751076631 12.454852364 9.009168854
Si 2.3917395852 16.3736198241 13.8284622626
Si 1.4388641363 17.3069432311 11.0273685643
Si 3.8362335688 16.5934826701 9.170133072
Si -5.5704710845 11.1543621986 12.9760485803
Si -2.4440184876 11.2191683826 12.9172243398
Si -1.4267995144 10.4733035368 15.7546818698
Si -1.5303514815 16.4590999143 10.8847201871
Si 6.2890985973 12.5496752933 11.1182783908
Si 5.4916508705 13.2975271943 13.9851481414
Si 2.3861095972 13.3203883978 13.8862167613
Si 1.4613839476 12.5401333849 10.9951491135
Si 3.9100267665 13.5317034495 9.3865787074
O 2.4550768296 11.1084407222 17.1204696071
O 5.9959374412 10.8778439971 7.306213511
O 5.0609567483 10.8877828315 17.0482764403
O -2.4751848545 12.9870157716 9.7447371905
O -3.9208843593 13.2573713725 7.6538096163
O 1.7794783701 16.5215197516 12.3624070641
O 2.4289377403 16.8753683876 9.8530265529
O -5.0609567483 12.6749142594 9.9252197197
O -3.6413960312 10.9036863699 8.6765457529
O 1.7191570902 12.4304010312 15.0121625103
O -2.1655344689 10.021054807 11.8878033457
O -1.9664747017 12.6033494596 12.2808555675
O 6.0260983124 12.5198576173 15.2635018577
O 5.8330692676 9.9912359383 14.6953148537
O -0.0462468126 16.9469331675 10.5642627532
O -1.5301501491 14.9113132479 11.2474239771
O 3.9952806896 15.0385392693 8.882429786
O 5.674223801 14.8596272898 14.2728511199
O 2.2137917301 14.8576390617 14.3009263101
O -4.0033239719 11.295304461 13.2434303263
O -1.6326966004 10.9772382248 14.26349279
O -2.4249159584 11.229704405 16.7474711823
O 7.6346659705 13.1003264825 10.4693423303
O 6.3297149594 12.8399109087 12.6899493858
O 3.9430022497 12.9472580884 13.7300657134
O 1.6528035798 13.0387017298 12.4960979304
O 2.4771946999 13.2752631589 10.0214772664
O 5.0207427695 13.3070690828 10.5027650536
O 6.1407086215 10.9931417633 10.8115915042
O 1.7111142703 10.9712758665 10.9172073942
O 8.3524892998 9.9693688488 7.8409770029
O 7.9181757789 12.5635917765 7.9051489771
O 3.7439418793 10.0031630206 8.204616309
O 4.1702124194 12.5755188389 8.1364345274
O 0.07841769 10.7824238798 16.1819584395
O -0.0261387675 12.8836450877 10.5348506396
