115

O                    -2.91126241     6.50944622    -3.32784860
Si                   -3.79593219    -2.49937047    -1.85117720
Si                    2.14041163    -3.58225524    -1.21374125
Si                    4.74461033    -2.81207941     0.32256575
Si                    5.83109976    -0.14171783    -0.98919064
Si                    1.41102422     3.49819740    -2.01198592
Si                    3.10696646     1.32167758    -0.79936842
Si                    0.71737153    -0.79871848    -0.48795655
Si                   -1.15318240     2.64261556    -3.61365742
Si                   -1.69688525    -4.80990630    -2.65414466
Si                   -0.03363686    -5.50811436    -0.06347408
O                    -5.16537803    -2.66710578    -2.70632382
O                     3.64701885    -3.46239533    -0.68045843
O                     5.52113614    -1.62593805    -0.42908399
O                     3.96110402    -2.19254855     1.58808026
O                    -2.77155079    -3.67968053    -2.29011608
O                     0.06087904    -0.81492918     0.96552707
O                     1.35518162    -2.23184190    -0.79972737
O                     4.37918254     0.51404014    -1.34293145
O                     2.06979013    -3.67316815    -2.83943161
O                     6.74088438    -0.28402535    -2.31101434
O                    -0.45547005    -4.11785966    -3.46464463
O                     1.90494139     4.87155453    -2.68888587
O                     2.67726117     2.51675415    -1.77475631
O                     1.84087097     0.32356508    -0.63848626
O                    -0.42713556    -0.58878146    -1.67322364
O                    -1.91102540     1.36216407    -3.05188170
O                     0.30821897     2.73544232    -2.90299874
O                    -2.34635413    -5.96864129    -3.56549932
O                    -1.05643993    -5.43073744    -1.30905041
O                     0.21231242    -7.02974712     0.40360352
O                    -0.63144621    -4.69667917     1.18264486
O                    -0.96597197     2.53944432    -5.22366971
O                    -3.13422695    -1.07484876    -2.10896705
O                     1.35112304    -4.82485083    -0.56086853
Al                   -2.07789845     0.22978627    -1.77314705
H                    -0.10437854    -1.00890728    -2.58365755
Si                    0.18597543    -1.27297300     2.52499432
Si                    3.33309307    -1.39398784     2.83660123
Si                   -2.05820844     5.43769915    -2.47768458
Si                    3.84768453     1.71143080     2.22751241
Si                   -4.68229557    -0.18104983     2.71069819
Si                   -4.28841004    -3.02655532     1.28136485
Si                   -1.43947796    -3.97397697     2.37649885
Si                    0.40570948     4.75696664     0.68456879
Si                    1.56920831     3.52667100     3.36209051
Si                   -0.85921910     1.47570098     3.54027024
Si                   -2.79457063     1.71554447     1.05557037
Si                   -2.73678133     4.73146798     0.49644787
O                     1.73482261    -1.60515711     2.79854276
O                    -0.55574781     6.01287251    -2.21247825
O                     3.62311901     0.18195057     2.66146003
O                    -6.22941867     0.16751588     3.00416963
O                    -0.30456738    -0.04709617     3.42959160
O                    -4.12826972    -2.72195244    -0.28479620
O                    -4.58404420    -1.64142585     2.05828218
O                     2.94360051     2.70416756     3.10680925
O                     3.45671884     1.86040408     0.67849743
O                    -3.80638740    -0.18995866     4.10529254
O                    -3.60018226     5.80422720     1.33226557
O                     1.76312470     4.56239630     4.58001669
O                    -1.85684290     1.63242829     4.78900132
O                    -5.46777986    -4.09301056     1.55633691
O                    -2.92499954    -3.64960540     1.86088584
O                    -1.45138406    -4.88807438     3.70204505
O                     0.77704164     6.28243534     0.22346553
O                     1.20485996     4.34133610     2.01482625
O                     0.39106017     2.48332595     3.69234039
O                    -1.60879552     1.80198052     2.15133540
O                    -3.27399889     3.23125890     0.73017138
O                    -1.17781008     4.74515500     0.93654558
O                     0.77407713     3.77645009    -0.53762103
O                    -2.31536412     0.96472511    -0.25398781
O                    -1.89611474     4.05065076    -3.28091985
O                    -2.77621861     5.15686698    -1.05672442
O                    -0.71258878    -2.58045461     2.73643638
O                    -4.02791064     0.94235722     1.77360173
O                     5.43505859     2.07427592     2.31835109
H                     5.92532456     2.31863904     3.10769529
O                     5.76287664    -3.94053709     0.85643780
H                     6.47103231    -4.35872478     0.36290208
O                     6.57373395     0.77886712     0.08994406
H                     6.29412795     1.30148692     0.85681006
O                     3.97182003    -1.87177445     4.23265072
H                     4.06749597    -2.76651548     4.56361071
H                    -3.86659798     6.58722944    -3.36057256
H                    -5.52409401    -1.97102789    -3.26232583
H                    -1.17895936     3.24118579    -5.84290043
H                    -0.48016675    -3.21128491    -3.81028929
H                     1.24708729     5.56726936    -2.84361240
H                     1.32012148    -4.16932084    -3.23540396
H                    -3.25687875    -6.26875161    -3.56661538
H                    -0.21953038     6.45892692    -1.41604021
H                     7.34084985     0.38429030    -2.64760133
H                     0.58268869    -7.74777736    -0.11241633
H                    -6.65572099     1.01763435     2.88132961
H                    -2.67761024     1.10685134     4.79856556
H                    -3.79999855     5.79209834     2.26967241
H                    -6.38030305    -4.02863172     1.26826063
H                    -3.70133528    -0.98421970     4.64083326
H                     1.43503295     4.45233319     5.47498286
H                     1.54932286     6.78687952     0.49097356
H                    -1.60386190    -5.83334101     3.75625736
C                    -0.52353723    -0.60512218    -5.67488727
C                     0.75996257    -0.62070774    -4.85719852
O                     0.53216478    -1.57478648    -3.73543297
C                     1.98148809    -1.07988300    -5.64860351
H                    -1.36254766    -0.35695212    -5.04082260
H                    -0.68333167    -1.57310337    -6.13509570
H                    -0.46010343     0.15987158    -6.43470761
H                     0.93239110     0.34544542    -4.40887645
H                     1.29990103    -2.14801640    -3.51474389
H                     1.81392200    -2.07263540    -6.04946202
H                     2.87007469    -1.09675751    -5.02787652
H                     2.15601789    -0.39833631    -6.47149597
