9

C       0.16046258    -1.23936815     0.00000000
C      -0.46322585     0.13616907     0.00000000
C       0.21945113     1.29416445     0.00000000
H       0.60422283    -2.03954013     0.00000000
H       0.80396728    -1.39532092     0.89144187
H       0.80396728    -1.39532092    -0.89144187
H      -1.56682579     0.18128205     0.00000000
H       1.32217644     1.31651449     0.00000000
H      -0.29866153     2.26466765     0.00000000
