9

C          0.94165        0.03372       -0.06803
C          2.43408        0.06990       -0.06684
C          3.14271        1.20492       -0.02857
H          0.59449       -1.00394       -0.10298
H          0.53880        0.55065       -0.94437
H          0.53883        0.49049        0.84114
H          2.95635       -0.88345       -0.09901
H          2.65875        2.17624        0.00420
H          4.22814        1.18340       -0.02932
