    12
 geometry
 C                    -0.06786744     0.67654245    -1.26550928
 C                     0.34835407    -0.06005427     0.00000000
 O                    -0.25628388    -1.33941562     0.00000000
 C                    -0.06786744     0.67654245     1.26550928
 H                     0.37105265     1.66909128    -1.30480912
 H                    -1.14792187     0.77590465    -1.29959674
 H                    -1.14792187     0.77590465     1.29959674
 H                     0.37105265     1.66909128     1.30480912
 H                     1.43082430    -0.17049475     0.00000000
 H                     0.40457996    -2.01442405     0.00000000
 H                     0.24644504     0.12603414    -2.14574980
 H                     0.24644504     0.12603414     2.14574980
    12
 geometry
 C                    -0.06487359     0.67647683    -1.26595531
 C                     0.34835407    -0.06005429    -0.00194632
 O                    -0.25628388    -1.33941562     0.00018484
 C                    -0.07086129     0.67660806     1.26506326
 H                     0.34617219     1.68170375    -1.28053561
 H                    -1.14421136     0.78836270    -1.31826088
 H                    -1.15163238     0.76344667     1.28093251
 H                     0.39593305     1.65647883     1.32908263
 H                     1.43082431    -0.17049471     0.00787575
 H                     0.40457997    -2.01442404    -0.00060428
 H                     0.22273013     0.10107927    -2.13956363
 H                     0.27016006     0.15098897     2.15193592
    12
 geometry
 C                    -0.06187975     0.67641122    -1.26640134
 C                     0.34835407    -0.06005430    -0.00389263
 O                    -0.25628389    -1.33941562     0.00036968
 C                    -0.07385513     0.67667367     1.26461724
 H                     0.32129174     1.69431623    -1.25626211
 H                    -1.14050085     0.80082076    -1.33692502
 H                    -1.15534289     0.75098870     1.26226827
 H                     0.42081345     1.64386638     1.35335615
 H                     1.43082431    -0.17049467     0.01575150
 H                     0.40457999    -2.01442402    -0.00120857
 H                     0.19901522     0.07612440    -2.13337746
 H                     0.29387508     0.17594380     2.15812204
    12
 geometry
 C                    -0.05888590     0.67634560    -1.26684737
 C                     0.34835407    -0.06005431    -0.00583895
 O                    -0.25628389    -1.33941562     0.00055452
 C                    -0.07684898     0.67673928     1.26417122
 H                     0.29641128     1.70692871    -1.23198860
 H                    -1.13679035     0.81327882    -1.35558916
 H                    -1.15905340     0.73853073     1.24360404
 H                     0.44569385     1.63125394     1.37762966
 H                     1.43082432    -0.17049462     0.02362724
 H                     0.40458000    -2.01442400    -0.00181285
 H                     0.17530030     0.05116954    -2.12719129
 H                     0.31759010     0.20089863     2.16430816
    12
 geometry
 C                    -0.05589206     0.67627998    -1.26729340
 C                     0.34835407    -0.06005432    -0.00778527
 O                    -0.25628389    -1.33941562     0.00073936
 C                    -0.07984283     0.67680490     1.26372520
 H                     0.27153083     1.71954119    -1.20771510
 H                    -1.13307984     0.82573688    -1.37425329
 H                    -1.16276391     0.72607275     1.22493981
 H                     0.47057425     1.61864149     1.40190317
 H                     1.43082433    -0.17049458     0.03150299
 H                     0.40458002    -2.01442398    -0.00241713
 H                     0.15158539     0.02621467    -2.12100511
 H                     0.34130512     0.22585347     2.17049428
    12
 geometry
 C                    -0.05289821     0.67621437    -1.26773943
 C                     0.34835407    -0.06005433    -0.00973158
 O                    -0.25628390    -1.33941562     0.00092420
 C                    -0.08283668     0.67687051     1.26327918
 H                     0.24665037     1.73215367    -1.18344159
 H                    -1.12936933     0.83819494    -1.39291743
 H                    -1.16647442     0.71361478     1.20627557
 H                     0.49545465     1.60602905     1.42617668
 H                     1.43082433    -0.17049453     0.03937874
 H                     0.40458003    -2.01442397    -0.00302142
 H                     0.12787048     0.00125981    -2.11481894
 H                     0.36502014     0.25080830     2.17668040
    12
 geometry
 C                    -0.05589206     0.67627998    -1.26729340
 C                     0.34835407    -0.06005432    -0.00778527
 O                    -0.25628389    -1.33941562     0.00073936
 C                    -0.07984283     0.67680490     1.26372520
 H                     0.27153083     1.71954119    -1.20771510
 H                    -1.13307984     0.82573688    -1.37425329
 H                    -1.16276391     0.72607275     1.22493981
 H                     0.47057425     1.61864149     1.40190317
 H                     1.43082433    -0.17049458     0.03150299
 H                     0.40458002    -2.01442398    -0.00241713
 H                     0.15158539     0.02621467    -2.12100511
 H                     0.34130512     0.22585347     2.17049428
    12
 geometry
 C                    -0.05888590     0.67634560    -1.26684737
 C                     0.34835407    -0.06005431    -0.00583895
 O                    -0.25628389    -1.33941562     0.00055452
 C                    -0.07684898     0.67673928     1.26417122
 H                     0.29641128     1.70692871    -1.23198860
 H                    -1.13679035     0.81327882    -1.35558916
 H                    -1.15905340     0.73853073     1.24360404
 H                     0.44569385     1.63125394     1.37762966
 H                     1.43082432    -0.17049462     0.02362724
 H                     0.40458000    -2.01442400    -0.00181285
 H                     0.17530030     0.05116954    -2.12719129
 H                     0.31759010     0.20089863     2.16430816
    12
 geometry
 C                    -0.06187975     0.67641122    -1.26640134
 C                     0.34835407    -0.06005430    -0.00389263
 O                    -0.25628389    -1.33941562     0.00036968
 C                    -0.07385513     0.67667367     1.26461724
 H                     0.32129174     1.69431623    -1.25626211
 H                    -1.14050085     0.80082076    -1.33692502
 H                    -1.15534289     0.75098870     1.26226827
 H                     0.42081345     1.64386638     1.35335615
 H                     1.43082431    -0.17049467     0.01575150
 H                     0.40457999    -2.01442402    -0.00120857
 H                     0.19901522     0.07612440    -2.13337746
 H                     0.29387508     0.17594380     2.15812204
    12
 geometry
 C                    -0.06487359     0.67647683    -1.26595531
 C                     0.34835407    -0.06005429    -0.00194632
 O                    -0.25628388    -1.33941562     0.00018484
 C                    -0.07086129     0.67660806     1.26506326
 H                     0.34617219     1.68170375    -1.28053561
 H                    -1.14421136     0.78836270    -1.31826088
 H                    -1.15163238     0.76344667     1.28093251
 H                     0.39593305     1.65647883     1.32908263
 H                     1.43082431    -0.17049471     0.00787575
 H                     0.40457997    -2.01442404    -0.00060428
 H                     0.22273013     0.10107927    -2.13956363
 H                     0.27016006     0.15098897     2.15193592
    12
 geometry
 C                    -0.06786744     0.67654245    -1.26550928
 C                     0.34835407    -0.06005427     0.00000000
 O                    -0.25628388    -1.33941562     0.00000000
 C                    -0.06786744     0.67654245     1.26550928
 H                     0.37105265     1.66909128    -1.30480912
 H                    -1.14792187     0.77590465    -1.29959674
 H                    -1.14792187     0.77590465     1.29959674
 H                     0.37105265     1.66909128     1.30480912
 H                     1.43082430    -0.17049475     0.00000000
 H                     0.40457996    -2.01442405     0.00000000
 H                     0.24644504     0.12603414    -2.14574980
 H                     0.24644504     0.12603414     2.14574980
    12
 geometry
 C                    -0.07086129     0.67660806    -1.26506325
 C                     0.34835407    -0.06005426     0.00194632
 O                    -0.25628388    -1.33941562    -0.00018484
 C                    -0.06487359     0.67647683     1.26595530
 H                     0.39593311     1.65647880    -1.32908263
 H                    -1.15163238     0.76344659    -1.28093260
 H                    -1.14421136     0.78836262     1.31826097
 H                     0.34617225     1.68170372     1.28053561
 H                     1.43082429    -0.17049480    -0.00787575
 H                     0.40457995    -2.01442407     0.00060428
 H                     0.27015995     0.15098900    -2.15193597
 H                     0.22273002     0.10107930     2.13956368
    12
 geometry
 C                    -0.07385513     0.67667368    -1.26461722
 C                     0.34835407    -0.06005425     0.00389263
 O                    -0.25628387    -1.33941562    -0.00036968
 C                    -0.06187975     0.67641122     1.26640132
 H                     0.42081356     1.64386632    -1.35335613
 H                    -1.15534289     0.75098853    -1.26226846
 H                    -1.14050085     0.80082059     1.33692521
 H                     0.32129185     1.69431617     1.25626209
 H                     1.43082429    -0.17049484    -0.01575150
 H                     0.40457993    -2.01442409     0.00120857
 H                     0.29387486     0.17594387    -2.15812214
 H                     0.19901500     0.07612447     2.13337756
    12
 geometry
 C                    -0.07684898     0.67673929    -1.26417119
 C                     0.34835407    -0.06005424     0.00583895
 O                    -0.25628387    -1.33941563    -0.00055452
 C                    -0.05888590     0.67634561     1.26684734
 H                     0.44569402     1.63125384    -1.37762964
 H                    -1.15905339     0.73853047    -1.24360432
 H                    -1.13679034     0.81327856     1.35558944
 H                     0.29641145     1.70692861     1.23198858
 H                     1.43082428    -0.17049489    -0.02362724
 H                     0.40457992    -2.01442411     0.00181285
 H                     0.31758978     0.20089873    -2.16430831
 H                     0.17529998     0.05116964     2.12719144
    12
 geometry
 C                    -0.07984282     0.67680491    -1.26372516
 C                     0.34835407    -0.06005423     0.00778527
 O                    -0.25628387    -1.33941563    -0.00073936
 C                    -0.05589205     0.67627999     1.26729336
 H                     0.47057447     1.61864136    -1.40190314
 H                    -1.16276390     0.72607241    -1.22494019
 H                    -1.13307983     0.82573654     1.37425367
 H                     0.27153105     1.71954106     1.20771507
 H                     1.43082427    -0.17049493    -0.03150299
 H                     0.40457990    -2.01442413     0.00241713
 H                     0.34130469     0.22585360    -2.17049449
 H                     0.15158496     0.02621480     2.12100532
    12
 geometry
 C                    -0.08283667     0.67687052    -1.26327913
 C                     0.34835407    -0.06005422     0.00973158
 O                    -0.25628386    -1.33941563    -0.00092420
 C                    -0.05289820     0.67621438     1.26773938
 H                     0.49545493     1.60602888    -1.42617665
 H                    -1.16647441     0.71361435    -1.20627605
 H                    -1.12936932     0.83819451     1.39291791
 H                     0.24665065     1.73215350     1.18344156
 H                     1.43082427    -0.17049498    -0.03937874
 H                     0.40457989    -2.01442414     0.00302142
 H                     0.36501960     0.25080846    -2.17668066
 H                     0.12786994     0.00125997     2.11481920
    12
 geometry
 C                    -0.07984282     0.67680491    -1.26372516
 C                     0.34835407    -0.06005423     0.00778527
 O                    -0.25628387    -1.33941563    -0.00073936
 C                    -0.05589205     0.67627999     1.26729336
 H                     0.47057447     1.61864136    -1.40190314
 H                    -1.16276390     0.72607241    -1.22494019
 H                    -1.13307983     0.82573654     1.37425367
 H                     0.27153105     1.71954106     1.20771507
 H                     1.43082427    -0.17049493    -0.03150299
 H                     0.40457990    -2.01442413     0.00241713
 H                     0.34130469     0.22585360    -2.17049449
 H                     0.15158496     0.02621480     2.12100532
    12
 geometry
 C                    -0.07684898     0.67673929    -1.26417119
 C                     0.34835407    -0.06005424     0.00583895
 O                    -0.25628387    -1.33941563    -0.00055452
 C                    -0.05888590     0.67634561     1.26684734
 H                     0.44569402     1.63125384    -1.37762964
 H                    -1.15905339     0.73853047    -1.24360432
 H                    -1.13679034     0.81327856     1.35558944
 H                     0.29641145     1.70692861     1.23198858
 H                     1.43082428    -0.17049489    -0.02362724
 H                     0.40457992    -2.01442411     0.00181285
 H                     0.31758978     0.20089873    -2.16430831
 H                     0.17529998     0.05116964     2.12719144
    12
 geometry
 C                    -0.07385513     0.67667368    -1.26461722
 C                     0.34835407    -0.06005425     0.00389263
 O                    -0.25628387    -1.33941562    -0.00036968
 C                    -0.06187975     0.67641122     1.26640132
 H                     0.42081356     1.64386632    -1.35335613
 H                    -1.15534289     0.75098853    -1.26226846
 H                    -1.14050085     0.80082059     1.33692521
 H                     0.32129185     1.69431617     1.25626209
 H                     1.43082429    -0.17049484    -0.01575150
 H                     0.40457993    -2.01442409     0.00120857
 H                     0.29387486     0.17594387    -2.15812214
 H                     0.19901500     0.07612447     2.13337756
    12
 geometry
 C                    -0.07086129     0.67660806    -1.26506325
 C                     0.34835407    -0.06005426     0.00194632
 O                    -0.25628388    -1.33941562    -0.00018484
 C                    -0.06487359     0.67647683     1.26595530
 H                     0.39593311     1.65647880    -1.32908263
 H                    -1.15163238     0.76344659    -1.28093260
 H                    -1.14421136     0.78836262     1.31826097
 H                     0.34617225     1.68170372     1.28053561
 H                     1.43082429    -0.17049480    -0.00787575
 H                     0.40457995    -2.01442407     0.00060428
 H                     0.27015995     0.15098900    -2.15193597
 H                     0.22273002     0.10107930     2.13956368
