    12
 geometry
 C                    -0.06786744     0.67654245    -1.26550928
 C                     0.34835407    -0.06005427     0.00000000
 O                    -0.25628388    -1.33941562     0.00000000
 C                    -0.06786744     0.67654245     1.26550928
 H                     0.37105265     1.66909128    -1.30480912
 H                    -1.14792187     0.77590465    -1.29959674
 H                    -1.14792187     0.77590465     1.29959674
 H                     0.37105265     1.66909128     1.30480912
 H                     1.43082430    -0.17049475     0.00000000
 H                     0.40457996    -2.01442405     0.00000000
 H                     0.24644504     0.12603414    -2.14574980
 H                     0.24644504     0.12603414     2.14574980
    12
 geometry
 C                    -0.06639795     0.66513502    -1.28783269
 C                     0.34969737    -0.06530123    -0.01869617
 O                    -0.25035707    -1.34682879    -0.01529690
 C                    -0.07192827     0.67447361     1.24318587
 H                     0.36905205     1.65911134    -1.32983565
 H                    -1.14673388     0.76050198    -1.32464670
 H                    -1.15241316     0.77009212     1.27454678
 H                     0.36334999     1.66873994     1.27978259
 H                     1.43256327    -0.17186359    -0.01592346
 H                     0.41292509    -2.01946957    -0.01136235
 H                     0.25181015     0.11250499    -2.16535524
 H                     0.24243315     0.12833916     2.12614436
    12
 geometry
 C                    -0.06492846     0.65372758    -1.31015610
 C                     0.35104068    -0.07054818    -0.03739233
 O                    -0.24443025    -1.35424195    -0.03059381
 C                    -0.07598909     0.67240478     1.22086246
 H                     0.36705146     1.64913141    -1.35486218
 H                    -1.14554588     0.74509932    -1.34969666
 H                    -1.15690445     0.76427960     1.24949682
 H                     0.35564734     1.66838861     1.25475606
 H                     1.43430225    -0.17323243    -0.03184693
 H                     0.42127023    -2.02451509    -0.02272471
 H                     0.25717527     0.09897584    -2.18496069
 H                     0.23842127     0.13064419     2.10653891
    12
 geometry
 C                    -0.06345896     0.64232015    -1.33247951
 C                     0.35238398    -0.07579514    -0.05608850
 O                    -0.23850344    -1.36165511    -0.04589071
 C                    -0.08004992     0.67033595     1.19853905
 H                     0.36505086     1.63915147    -1.37988871
 H                    -1.14435789     0.72969666    -1.37474662
 H                    -1.16139574     0.75846708     1.22444686
 H                     0.34794468     1.66803728     1.22972953
 H                     1.43604122    -0.17460127    -0.04777039
 H                     0.42961536    -2.02956060    -0.03408706
 H                     0.26254038     0.08544670    -2.20456613
 H                     0.23440938     0.13294922     2.08693347
    12
 geometry
 C                    -0.06198947     0.63091272    -1.35480292
 C                     0.35372729    -0.08104209    -0.07478467
 O                    -0.23257663    -1.36906827    -0.06118761
 C                    -0.08411075     0.66826712     1.17621564
 H                     0.36305027     1.62917154    -1.40491524
 H                    -1.14316990     0.71429399    -1.39979658
 H                    -1.16588703     0.75265455     1.19939690
 H                     0.34024202     1.66768595     1.20470300
 H                     1.43778020    -0.17597010    -0.06369385
 H                     0.43796050    -2.03460612    -0.04544941
 H                     0.26790550     0.07191755    -2.22417157
 H                     0.23039749     0.13525425     2.06732803
    12
 geometry
 C                    -0.06051998     0.61950529    -1.37712633
 C                     0.35507059    -0.08628904    -0.09348084
 O                    -0.22664981    -1.37648144    -0.07648452
 C                    -0.08817158     0.66619828     1.15389223
 H                     0.36104967     1.61919160    -1.42994177
 H                    -1.14198190     0.69889133    -1.42484654
 H                    -1.17037832     0.74684203     1.17434694
 H                     0.33253936     1.66733462     1.17967647
 H                     1.43951917    -0.17733894    -0.07961732
 H                     0.44630563    -2.03965163    -0.05681176
 H                     0.27327061     0.05838841    -2.24377702
 H                     0.22638560     0.13755928     2.04772258
    12
 geometry
 C                    -0.06198947     0.63091272    -1.35480292
 C                     0.35372729    -0.08104209    -0.07478467
 O                    -0.23257663    -1.36906827    -0.06118761
 C                    -0.08411075     0.66826712     1.17621564
 H                     0.36305027     1.62917154    -1.40491524
 H                    -1.14316990     0.71429399    -1.39979658
 H                    -1.16588703     0.75265455     1.19939690
 H                     0.34024202     1.66768595     1.20470300
 H                     1.43778020    -0.17597010    -0.06369385
 H                     0.43796050    -2.03460612    -0.04544941
 H                     0.26790550     0.07191755    -2.22417157
 H                     0.23039749     0.13525425     2.06732803
    12
 geometry
 C                    -0.06345896     0.64232015    -1.33247951
 C                     0.35238398    -0.07579514    -0.05608850
 O                    -0.23850344    -1.36165511    -0.04589071
 C                    -0.08004992     0.67033595     1.19853905
 H                     0.36505086     1.63915147    -1.37988871
 H                    -1.14435789     0.72969666    -1.37474662
 H                    -1.16139574     0.75846708     1.22444686
 H                     0.34794468     1.66803728     1.22972953
 H                     1.43604122    -0.17460127    -0.04777039
 H                     0.42961536    -2.02956060    -0.03408706
 H                     0.26254038     0.08544670    -2.20456613
 H                     0.23440938     0.13294922     2.08693347
    12
 geometry
 C                    -0.06492846     0.65372758    -1.31015610
 C                     0.35104068    -0.07054818    -0.03739233
 O                    -0.24443025    -1.35424195    -0.03059381
 C                    -0.07598909     0.67240478     1.22086246
 H                     0.36705146     1.64913141    -1.35486218
 H                    -1.14554588     0.74509932    -1.34969666
 H                    -1.15690445     0.76427960     1.24949682
 H                     0.35564734     1.66838861     1.25475606
 H                     1.43430225    -0.17323243    -0.03184693
 H                     0.42127023    -2.02451509    -0.02272471
 H                     0.25717527     0.09897584    -2.18496069
 H                     0.23842127     0.13064419     2.10653891
    12
 geometry
 C                    -0.06639795     0.66513502    -1.28783269
 C                     0.34969737    -0.06530123    -0.01869617
 O                    -0.25035707    -1.34682879    -0.01529690
 C                    -0.07192827     0.67447361     1.24318587
 H                     0.36905205     1.65911134    -1.32983565
 H                    -1.14673388     0.76050198    -1.32464670
 H                    -1.15241316     0.77009212     1.27454678
 H                     0.36334999     1.66873994     1.27978259
 H                     1.43256327    -0.17186359    -0.01592346
 H                     0.41292509    -2.01946957    -0.01136235
 H                     0.25181015     0.11250499    -2.16535524
 H                     0.24243315     0.12833916     2.12614436
    12
 geometry
 C                    -0.06786744     0.67654245    -1.26550928
 C                     0.34835407    -0.06005427     0.00000000
 O                    -0.25628388    -1.33941562     0.00000000
 C                    -0.06786744     0.67654245     1.26550928
 H                     0.37105265     1.66909128    -1.30480912
 H                    -1.14792187     0.77590465    -1.29959674
 H                    -1.14792187     0.77590465     1.29959674
 H                     0.37105265     1.66909128     1.30480912
 H                     1.43082430    -0.17049475     0.00000000
 H                     0.40457996    -2.01442405     0.00000000
 H                     0.24644504     0.12603414    -2.14574980
 H                     0.24644504     0.12603414     2.14574980
    12
 geometry
 C                    -0.06933693     0.68794988    -1.24318587
 C                     0.34701077    -0.05480732     0.01869617
 O                    -0.26221069    -1.33200246     0.01529690
 C                    -0.06380661     0.67861128     1.28783269
 H                     0.37305325     1.67907121    -1.27978259
 H                    -1.14910986     0.79130731    -1.27454678
 H                    -1.14343058     0.78171717     1.32464670
 H                     0.37875531     1.66944261     1.32983565
 H                     1.42908533    -0.16912592     0.01592346
 H                     0.39623483    -2.00937854     0.01136235
 H                     0.24107993     0.13956328    -2.12614436
 H                     0.25045693     0.12372911     2.16535524
    12
 geometry
 C                    -0.07080642     0.69935731    -1.22086246
 C                     0.34566746    -0.04956037     0.03739233
 O                    -0.26813751    -1.32458930     0.03059381
 C                    -0.05974579     0.68068011     1.31015610
 H                     0.37505384     1.68905114    -1.25475606
 H                    -1.15029786     0.80670997    -1.24949682
 H                    -1.13893929     0.78752969     1.34969666
 H                     0.38645796     1.66979394     1.35486218
 H                     1.42734635    -0.16775708     0.03184693
 H                     0.38788969    -2.00433302     0.02272471
 H                     0.23571481     0.15309243    -2.10653891
 H                     0.25446881     0.12142408     2.18496069
    12
 geometry
 C                    -0.07227592     0.71076474    -1.19853905
 C                     0.34432416    -0.04431341     0.05608850
 O                    -0.27406432    -1.31717614     0.04589071
 C                    -0.05568496     0.68274894     1.33247951
 H                     0.37705444     1.69903108    -1.22972953
 H                    -1.15148585     0.82211263    -1.22444686
 H                    -1.13444800     0.79334221     1.37474662
 H                     0.39416062     1.67014527     1.37988871
 H                     1.42560738    -0.16638824     0.04777039
 H                     0.37954456    -1.99928751     0.03408706
 H                     0.23034970     0.16662157    -2.08693347
 H                     0.25848070     0.11911905     2.20456613
    12
 geometry
 C                    -0.07374541     0.72217217    -1.17621564
 C                     0.34298085    -0.03906646     0.07478467
 O                    -0.27999113    -1.30976298     0.06118761
 C                    -0.05162413     0.68481778     1.35480292
 H                     0.37905503     1.70901101    -1.20470300
 H                    -1.15267384     0.83751530    -1.19939690
 H                    -1.12995671     0.79915474     1.39979658
 H                     0.40186328     1.67049660     1.40491524
 H                     1.42386840    -0.16501941     0.06369385
 H                     0.37119942    -1.99424199     0.04544941
 H                     0.22498458     0.18015072    -2.06732803
 H                     0.26249259     0.11681402     2.22417157
    12
 geometry
 C                    -0.07521490     0.73357960    -1.15389223
 C                     0.34163755    -0.03381951     0.09348084
 O                    -0.28591795    -1.30234981     0.07648452
 C                    -0.04756330     0.68688661     1.37712633
 H                     0.38105563     1.71899095    -1.17967647
 H                    -1.15386184     0.85291796    -1.17434694
 H                    -1.12546542     0.80496726     1.42484654
 H                     0.40956594     1.67084793     1.42994177
 H                     1.42212943    -0.16365057     0.07961732
 H                     0.36285429    -1.98919648     0.05681176
 H                     0.21961947     0.19367986    -2.04772258
 H                     0.26650448     0.11450899     2.24377702
    12
 geometry
 C                    -0.07374541     0.72217217    -1.17621564
 C                     0.34298085    -0.03906646     0.07478467
 O                    -0.27999113    -1.30976298     0.06118761
 C                    -0.05162413     0.68481778     1.35480292
 H                     0.37905503     1.70901101    -1.20470300
 H                    -1.15267384     0.83751530    -1.19939690
 H                    -1.12995671     0.79915474     1.39979658
 H                     0.40186328     1.67049660     1.40491524
 H                     1.42386840    -0.16501941     0.06369385
 H                     0.37119942    -1.99424199     0.04544941
 H                     0.22498458     0.18015072    -2.06732803
 H                     0.26249259     0.11681402     2.22417157
    12
 geometry
 C                    -0.07227592     0.71076474    -1.19853905
 C                     0.34432416    -0.04431341     0.05608850
 O                    -0.27406432    -1.31717614     0.04589071
 C                    -0.05568496     0.68274894     1.33247951
 H                     0.37705444     1.69903108    -1.22972953
 H                    -1.15148585     0.82211263    -1.22444686
 H                    -1.13444800     0.79334221     1.37474662
 H                     0.39416062     1.67014527     1.37988871
 H                     1.42560738    -0.16638824     0.04777039
 H                     0.37954456    -1.99928751     0.03408706
 H                     0.23034970     0.16662157    -2.08693347
 H                     0.25848070     0.11911905     2.20456613
    12
 geometry
 C                    -0.07080642     0.69935731    -1.22086246
 C                     0.34566746    -0.04956037     0.03739233
 O                    -0.26813751    -1.32458930     0.03059381
 C                    -0.05974579     0.68068011     1.31015610
 H                     0.37505384     1.68905114    -1.25475606
 H                    -1.15029786     0.80670997    -1.24949682
 H                    -1.13893929     0.78752969     1.34969666
 H                     0.38645796     1.66979394     1.35486218
 H                     1.42734635    -0.16775708     0.03184693
 H                     0.38788969    -2.00433302     0.02272471
 H                     0.23571481     0.15309243    -2.10653891
 H                     0.25446881     0.12142408     2.18496069
    12
 geometry
 C                    -0.06933693     0.68794988    -1.24318587
 C                     0.34701077    -0.05480732     0.01869617
 O                    -0.26221069    -1.33200246     0.01529690
 C                    -0.06380661     0.67861128     1.28783269
 H                     0.37305325     1.67907121    -1.27978259
 H                    -1.14910986     0.79130731    -1.27454678
 H                    -1.14343058     0.78171717     1.32464670
 H                     0.37875531     1.66944261     1.32983565
 H                     1.42908533    -0.16912592     0.01592346
 H                     0.39623483    -2.00937854     0.01136235
 H                     0.24107993     0.13956328    -2.12614436
 H                     0.25045693     0.12372911     2.16535524
