    12
 geometry
 C                    -0.06786744     0.67654245    -1.26550928
 C                     0.34835407    -0.06005427     0.00000000
 O                    -0.25628388    -1.33941562     0.00000000
 C                    -0.06786744     0.67654245     1.26550928
 H                     0.37105265     1.66909128    -1.30480912
 H                    -1.14792187     0.77590465    -1.29959674
 H                    -1.14792187     0.77590465     1.29959674
 H                     0.37105265     1.66909128     1.30480912
 H                     1.43082430    -0.17049475     0.00000000
 H                     0.40457996    -2.01442405     0.00000000
 H                     0.24644504     0.12603414    -2.14574980
 H                     0.24644504     0.12603414     2.14574980
    12
 geometry
 C                    -0.06206975     0.67701008    -1.26620624
 C                     0.33691338    -0.05981519     0.00000001
 O                    -0.25106257    -1.33842576    -0.00000000
 C                    -0.06206976     0.67701008     1.26620624
 H                     0.36143901     1.67588881    -1.30537155
 H                    -1.14415384     0.76563539    -1.28163327
 H                    -1.14415385     0.76563541     1.28163327
 H                     0.36143903     1.67588881     1.30537155
 H                     1.42184917    -0.14146171    -0.00000007
 H                     0.36308829    -2.05862877     0.00000000
 H                     0.23517011     0.12224533    -2.14950503
 H                     0.23517015     0.12224532     2.14950500
    12
 geometry
 C                    -0.05627206     0.67747771    -1.26690320
 C                     0.32547269    -0.05957611     0.00000002
 O                    -0.24584125    -1.33743589    -0.00000001
 C                    -0.05627208     0.67747772     1.26690320
 H                     0.35182538     1.68268635    -1.30593398
 H                    -1.14038582     0.75536613    -1.26366981
 H                    -1.14038583     0.75536618     1.26366980
 H                     0.35182541     1.68268634     1.30593398
 H                     1.41287405    -0.11242867    -0.00000013
 H                     0.32159662    -2.10283348     0.00000001
 H                     0.22389518     0.11845653    -2.15326026
 H                     0.22389527     0.11845650     2.15326019
    12
 geometry
 C                    -0.05047436     0.67794534    -1.26760016
 C                     0.31403201    -0.05933702     0.00000003
 O                    -0.24061994    -1.33644602    -0.00000001
 C                    -0.05047440     0.67794536     1.26760017
 H                     0.34221174     1.68948389    -1.30649641
 H                    -1.13661779     0.74509687    -1.24570634
 H                    -1.13661780     0.74509694     1.24570633
 H                     0.34221179     1.68948387     1.30649641
 H                     1.40389892    -0.08339563    -0.00000020
 H                     0.28010495    -2.14703820     0.00000001
 H                     0.21262026     0.11466773    -2.15701549
 H                     0.21262038     0.11466768     2.15701539
    12
 geometry
 C                    -0.04467667     0.67841297    -1.26829712
 C                     0.30259132    -0.05909794     0.00000004
 O                    -0.23539863    -1.33545616    -0.00000001
 C                    -0.04467671     0.67841300     1.26829713
 H                     0.33259811     1.69628142    -1.30705883
 H                    -1.13284976     0.73482761    -1.22774288
 H                    -1.13284978     0.73482770     1.22774286
 H                     0.33259817     1.69628140     1.30705884
 H                     1.39492379    -0.05436259    -0.00000027
 H                     0.23861328    -2.19124291     0.00000001
 H                     0.20134533     0.11087892    -2.16077072
 H                     0.20134550     0.11087886     2.16077059
    12
 geometry
 C                    -0.03887898     0.67888060    -1.26899408
 C                     0.29115063    -0.05885886     0.00000005
 O                    -0.23017731    -1.33446629    -0.00000001
 C                    -0.03887903     0.67888063     1.26899409
 H                     0.32298447     1.70307896    -1.30762126
 H                    -1.12908174     0.72455835    -1.20977941
 H                    -1.12908176     0.72455847     1.20977940
 H                     0.32298455     1.70307893     1.30762127
 H                     1.38594867    -0.02532955    -0.00000034
 H                     0.19712161    -2.23544763     0.00000001
 H                     0.19007040     0.10709012    -2.16452595
 H                     0.19007061     0.10709004     2.16452579
    12
 geometry
 C                    -0.04467667     0.67841297    -1.26829712
 C                     0.30259132    -0.05909794     0.00000004
 O                    -0.23539863    -1.33545616    -0.00000001
 C                    -0.04467671     0.67841300     1.26829713
 H                     0.33259811     1.69628142    -1.30705883
 H                    -1.13284976     0.73482761    -1.22774288
 H                    -1.13284978     0.73482770     1.22774286
 H                     0.33259817     1.69628140     1.30705884
 H                     1.39492379    -0.05436259    -0.00000027
 H                     0.23861328    -2.19124291     0.00000001
 H                     0.20134533     0.11087892    -2.16077072
 H                     0.20134550     0.11087886     2.16077059
    12
 geometry
 C                    -0.05047436     0.67794534    -1.26760016
 C                     0.31403201    -0.05933702     0.00000003
 O                    -0.24061994    -1.33644602    -0.00000001
 C                    -0.05047440     0.67794536     1.26760017
 H                     0.34221174     1.68948389    -1.30649641
 H                    -1.13661779     0.74509687    -1.24570634
 H                    -1.13661780     0.74509694     1.24570633
 H                     0.34221179     1.68948387     1.30649641
 H                     1.40389892    -0.08339563    -0.00000020
 H                     0.28010495    -2.14703820     0.00000001
 H                     0.21262026     0.11466773    -2.15701549
 H                     0.21262038     0.11466768     2.15701539
    12
 geometry
 C                    -0.05627206     0.67747771    -1.26690320
 C                     0.32547269    -0.05957611     0.00000002
 O                    -0.24584125    -1.33743589    -0.00000001
 C                    -0.05627208     0.67747772     1.26690320
 H                     0.35182538     1.68268635    -1.30593398
 H                    -1.14038582     0.75536613    -1.26366981
 H                    -1.14038583     0.75536618     1.26366980
 H                     0.35182541     1.68268634     1.30593398
 H                     1.41287405    -0.11242867    -0.00000013
 H                     0.32159662    -2.10283348     0.00000001
 H                     0.22389518     0.11845653    -2.15326026
 H                     0.22389527     0.11845650     2.15326019
    12
 geometry
 C                    -0.06206975     0.67701008    -1.26620624
 C                     0.33691338    -0.05981519     0.00000001
 O                    -0.25106257    -1.33842576    -0.00000000
 C                    -0.06206976     0.67701008     1.26620624
 H                     0.36143901     1.67588881    -1.30537155
 H                    -1.14415384     0.76563539    -1.28163327
 H                    -1.14415385     0.76563541     1.28163327
 H                     0.36143903     1.67588881     1.30537155
 H                     1.42184917    -0.14146171    -0.00000007
 H                     0.36308829    -2.05862877     0.00000000
 H                     0.23517011     0.12224533    -2.14950503
 H                     0.23517015     0.12224532     2.14950500
    12
 geometry
 C                    -0.06786744     0.67654245    -1.26550928
 C                     0.34835407    -0.06005427     0.00000000
 O                    -0.25628388    -1.33941562     0.00000000
 C                    -0.06786744     0.67654245     1.26550928
 H                     0.37105265     1.66909128    -1.30480912
 H                    -1.14792187     0.77590465    -1.29959674
 H                    -1.14792187     0.77590465     1.29959674
 H                     0.37105265     1.66909128     1.30480912
 H                     1.43082430    -0.17049475     0.00000000
 H                     0.40457996    -2.01442405     0.00000000
 H                     0.24644504     0.12603414    -2.14574980
 H                     0.24644504     0.12603414     2.14574980
    12
 geometry
 C                    -0.07366513     0.67607481    -1.26481232
 C                     0.35979476    -0.06029336    -0.00000001
 O                    -0.26150519    -1.34040549     0.00000000
 C                    -0.07366512     0.67607481     1.26481232
 H                     0.38066629     1.66229374    -1.30424669
 H                    -1.15168990     0.78617391    -1.31756021
 H                    -1.15168989     0.78617388     1.31756021
 H                     0.38066627     1.66229374     1.30424669
 H                     1.43979943    -0.19952780     0.00000007
 H                     0.44607163    -1.97021934    -0.00000000
 H                     0.25771997     0.12982294    -2.14199457
 H                     0.25771993     0.12982295     2.14199460
    12
 geometry
 C                    -0.07946282     0.67560718    -1.26411536
 C                     0.37123545    -0.06053244    -0.00000002
 O                    -0.26672651    -1.34139536     0.00000001
 C                    -0.07946280     0.67560717     1.26411536
 H                     0.39027992     1.65549620    -1.30368426
 H                    -1.15545792     0.79644317    -1.33552367
 H                    -1.15545791     0.79644312     1.33552368
 H                     0.39027989     1.65549621     1.30368426
 H                     1.44877455    -0.22856084     0.00000013
 H                     0.48756330    -1.92601463    -0.00000001
 H                     0.26899490     0.13361174    -2.13823934
 H                     0.26899481     0.13361177     2.13823941
    12
 geometry
 C                    -0.08526052     0.67513955    -1.26341840
 C                     0.38267613    -0.06077153    -0.00000003
 O                    -0.27194782    -1.34238523     0.00000001
 C                    -0.08526048     0.67513953     1.26341839
 H                     0.39989356     1.64869867    -1.30312183
 H                    -1.15922595     0.80671243    -1.35348714
 H                    -1.15922594     0.80671235     1.35348715
 H                     0.39989351     1.64869868     1.30312183
 H                     1.45774968    -0.25759388     0.00000020
 H                     0.52905497    -1.88180991    -0.00000001
 H                     0.28026982     0.13740054    -2.13448411
 H                     0.28026970     0.13740059     2.13448421
    12
 geometry
 C                    -0.09105821     0.67467192    -1.26272144
 C                     0.39411682    -0.06101061    -0.00000004
 O                    -0.27716913    -1.34337509     0.00000001
 C                    -0.09105817     0.67467189     1.26272143
 H                     0.40950719     1.64190113    -1.30255941
 H                    -1.16299398     0.81698169    -1.37145060
 H                    -1.16299396     0.81698159     1.37145062
 H                     0.40950713     1.64190115     1.30255940
 H                     1.46672481    -0.28662692     0.00000027
 H                     0.57054664    -1.83760520    -0.00000001
 H                     0.29154475     0.14118935    -2.13072888
 H                     0.29154458     0.14118941     2.13072901
    12
 geometry
 C                    -0.09685590     0.67420429    -1.26202448
 C                     0.40555751    -0.06124969    -0.00000005
 O                    -0.28239045    -1.34436496     0.00000001
 C                    -0.09685585     0.67420426     1.26202447
 H                     0.41912083     1.63510359    -1.30199698
 H                    -1.16676200     0.82725095    -1.38941407
 H                    -1.16676198     0.82725082     1.38941408
 H                     0.41912075     1.63510362     1.30199697
 H                     1.47569993    -0.31565996     0.00000034
 H                     0.61203831    -1.79340048    -0.00000001
 H                     0.30281968     0.14497815    -2.12697365
 H                     0.30281947     0.14497823     2.12697381
    12
 geometry
 C                    -0.09105821     0.67467192    -1.26272144
 C                     0.39411682    -0.06101061    -0.00000004
 O                    -0.27716913    -1.34337509     0.00000001
 C                    -0.09105817     0.67467189     1.26272143
 H                     0.40950719     1.64190113    -1.30255941
 H                    -1.16299398     0.81698169    -1.37145060
 H                    -1.16299396     0.81698159     1.37145062
 H                     0.40950713     1.64190115     1.30255940
 H                     1.46672481    -0.28662692     0.00000027
 H                     0.57054664    -1.83760520    -0.00000001
 H                     0.29154475     0.14118935    -2.13072888
 H                     0.29154458     0.14118941     2.13072901
    12
 geometry
 C                    -0.08526052     0.67513955    -1.26341840
 C                     0.38267613    -0.06077153    -0.00000003
 O                    -0.27194782    -1.34238523     0.00000001
 C                    -0.08526048     0.67513953     1.26341839
 H                     0.39989356     1.64869867    -1.30312183
 H                    -1.15922595     0.80671243    -1.35348714
 H                    -1.15922594     0.80671235     1.35348715
 H                     0.39989351     1.64869868     1.30312183
 H                     1.45774968    -0.25759388     0.00000020
 H                     0.52905497    -1.88180991    -0.00000001
 H                     0.28026982     0.13740054    -2.13448411
 H                     0.28026970     0.13740059     2.13448421
    12
 geometry
 C                    -0.07946282     0.67560718    -1.26411536
 C                     0.37123545    -0.06053244    -0.00000002
 O                    -0.26672651    -1.34139536     0.00000001
 C                    -0.07946280     0.67560717     1.26411536
 H                     0.39027992     1.65549620    -1.30368426
 H                    -1.15545792     0.79644317    -1.33552367
 H                    -1.15545791     0.79644312     1.33552368
 H                     0.39027989     1.65549621     1.30368426
 H                     1.44877455    -0.22856084     0.00000013
 H                     0.48756330    -1.92601463    -0.00000001
 H                     0.26899490     0.13361174    -2.13823934
 H                     0.26899481     0.13361177     2.13823941
    12
 geometry
 C                    -0.07366513     0.67607481    -1.26481232
 C                     0.35979476    -0.06029336    -0.00000001
 O                    -0.26150519    -1.34040549     0.00000000
 C                    -0.07366512     0.67607481     1.26481232
 H                     0.38066629     1.66229374    -1.30424669
 H                    -1.15168990     0.78617391    -1.31756021
 H                    -1.15168989     0.78617388     1.31756021
 H                     0.38066627     1.66229374     1.30424669
 H                     1.43979943    -0.19952780     0.00000007
 H                     0.44607163    -1.97021934    -0.00000000
 H                     0.25771997     0.12982294    -2.14199457
 H                     0.25771993     0.12982295     2.14199460
