    12
 geometry
 C                    -0.06786744     0.67654245    -1.26550928
 C                     0.34835407    -0.06005427     0.00000000
 O                    -0.25628388    -1.33941562     0.00000000
 C                    -0.06786744     0.67654245     1.26550928
 H                     0.37105265     1.66909128    -1.30480912
 H                    -1.14792187     0.77590465    -1.29959674
 H                    -1.14792187     0.77590465     1.29959674
 H                     0.37105265     1.66909128     1.30480912
 H                     1.43082430    -0.17049475     0.00000000
 H                     0.40457996    -2.01442405     0.00000000
 H                     0.24644504     0.12603414    -2.14574980
 H                     0.24644504     0.12603414     2.14574980
    12
 geometry
 C                    -0.07098316     0.64956450    -1.26570018
 C                     0.34795516    -0.07197917     0.00767725
 O                    -0.25472524    -1.35226568     0.02301078
 C                    -0.06780367     0.67839687     1.26531838
 H                     0.36636886     1.64233724    -1.31685812
 H                    -1.15123244     0.74688580    -1.29956277
 H                    -1.14796732     0.77649479     1.29963071
 H                     0.36964709     1.67206498     1.29276012
 H                     1.43059438    -0.18076337     0.00757554
 H                     0.40717143    -2.02626292     0.02987003
 H                     0.24306589     0.08950977    -2.14006437
 H                     0.24845691     0.13839684     2.15143523
    12
 geometry
 C                    -0.07409888     0.62258656    -1.26589109
 C                     0.34755625    -0.08390407     0.01535451
 O                    -0.25316660    -1.36511574     0.04602157
 C                    -0.06773990     0.68025129     1.26512747
 H                     0.36168507     1.61558320    -1.32890713
 H                    -1.15454302     0.71786695    -1.29952879
 H                    -1.14801276     0.77708493     1.29966469
 H                     0.36824152     1.67503868     1.28071111
 H                     1.43036445    -0.19103198     0.01515108
 H                     0.40976291    -2.03810179     0.05974006
 H                     0.23968674     0.05298540    -2.13437895
 H                     0.25046877     0.15075954     2.15712065
    12
 geometry
 C                    -0.07721460     0.59560862    -1.26608199
 C                     0.34715734    -0.09582897     0.02303176
 O                    -0.25160795    -1.37796579     0.06903235
 C                    -0.06767614     0.68210571     1.26493657
 H                     0.35700129     1.58882916    -1.34095613
 H                    -1.15785359     0.68884811    -1.29949482
 H                    -1.14805821     0.77767507     1.29969866
 H                     0.36683596     1.67801238     1.26866211
 H                     1.43013453    -0.20130059     0.02272662
 H                     0.41235438    -2.04994066     0.08961010
 H                     0.23630758     0.01646104    -2.12869352
 H                     0.25248064     0.16312225     2.16280608
    12
 geometry
 C                    -0.08033032     0.56863067    -1.26627290
 C                     0.34675843    -0.10775387     0.03070902
 O                    -0.25004931    -1.39081585     0.09204314
 C                    -0.06761237     0.68396013     1.26474566
 H                     0.35231750     1.56207512    -1.35300514
 H                    -1.16116417     0.65982926    -1.29946084
 H                    -1.14810365     0.77826521     1.29973264
 H                     0.36543040     1.68098608     1.25661310
 H                     1.42990460    -0.21156920     0.03030216
 H                     0.41494585    -2.06177953     0.11948013
 H                     0.23292843    -0.02006333    -2.12300809
 H                     0.25449251     0.17548495     2.16849151
    12
 geometry
 C                    -0.08344604     0.54165273    -1.26646380
 C                     0.34635953    -0.11967877     0.03838627
 O                    -0.24849067    -1.40366591     0.11505392
 C                    -0.06754860     0.68581456     1.26455476
 H                     0.34763371     1.53532108    -1.36505414
 H                    -1.16447474     0.63081042    -1.29942687
 H                    -1.14814910     0.77885535     1.29976661
 H                     0.36402484     1.68395979     1.24456410
 H                     1.42967468    -0.22183781     0.03787770
 H                     0.41753733    -2.07361840     0.14935016
 H                     0.22954928    -0.05658769    -2.11732266
 H                     0.25650437     0.18784766     2.17417694
    12
 geometry
 C                    -0.08033032     0.56863067    -1.26627290
 C                     0.34675843    -0.10775387     0.03070902
 O                    -0.25004931    -1.39081585     0.09204314
 C                    -0.06761237     0.68396013     1.26474566
 H                     0.35231750     1.56207512    -1.35300514
 H                    -1.16116417     0.65982926    -1.29946084
 H                    -1.14810365     0.77826521     1.29973264
 H                     0.36543040     1.68098608     1.25661310
 H                     1.42990460    -0.21156920     0.03030216
 H                     0.41494585    -2.06177953     0.11948013
 H                     0.23292843    -0.02006333    -2.12300809
 H                     0.25449251     0.17548495     2.16849151
    12
 geometry
 C                    -0.07721460     0.59560862    -1.26608199
 C                     0.34715734    -0.09582897     0.02303176
 O                    -0.25160795    -1.37796579     0.06903235
 C                    -0.06767614     0.68210571     1.26493657
 H                     0.35700129     1.58882916    -1.34095613
 H                    -1.15785359     0.68884811    -1.29949482
 H                    -1.14805821     0.77767507     1.29969866
 H                     0.36683596     1.67801238     1.26866211
 H                     1.43013453    -0.20130059     0.02272662
 H                     0.41235438    -2.04994066     0.08961010
 H                     0.23630758     0.01646104    -2.12869352
 H                     0.25248064     0.16312225     2.16280608
    12
 geometry
 C                    -0.07409888     0.62258656    -1.26589109
 C                     0.34755625    -0.08390407     0.01535451
 O                    -0.25316660    -1.36511574     0.04602157
 C                    -0.06773990     0.68025129     1.26512747
 H                     0.36168507     1.61558320    -1.32890713
 H                    -1.15454302     0.71786695    -1.29952879
 H                    -1.14801276     0.77708493     1.29966469
 H                     0.36824152     1.67503868     1.28071111
 H                     1.43036445    -0.19103198     0.01515108
 H                     0.40976291    -2.03810179     0.05974006
 H                     0.23968674     0.05298540    -2.13437895
 H                     0.25046877     0.15075954     2.15712065
    12
 geometry
 C                    -0.07098316     0.64956450    -1.26570018
 C                     0.34795516    -0.07197917     0.00767725
 O                    -0.25472524    -1.35226568     0.02301078
 C                    -0.06780367     0.67839687     1.26531838
 H                     0.36636886     1.64233724    -1.31685812
 H                    -1.15123244     0.74688580    -1.29956277
 H                    -1.14796732     0.77649479     1.29963071
 H                     0.36964709     1.67206498     1.29276012
 H                     1.43059438    -0.18076337     0.00757554
 H                     0.40717143    -2.02626292     0.02987003
 H                     0.24306589     0.08950977    -2.14006437
 H                     0.24845691     0.13839684     2.15143523
    12
 geometry
 C                    -0.06786744     0.67654245    -1.26550928
 C                     0.34835407    -0.06005427     0.00000000
 O                    -0.25628388    -1.33941562     0.00000000
 C                    -0.06786744     0.67654245     1.26550928
 H                     0.37105265     1.66909128    -1.30480912
 H                    -1.14792187     0.77590465    -1.29959674
 H                    -1.14792187     0.77590465     1.29959674
 H                     0.37105265     1.66909128     1.30480912
 H                     1.43082430    -0.17049475     0.00000000
 H                     0.40457996    -2.01442405     0.00000000
 H                     0.24644504     0.12603414    -2.14574980
 H                     0.24644504     0.12603414     2.14574980
    12
 geometry
 C                    -0.06475172     0.70352039    -1.26531838
 C                     0.34875298    -0.04812938    -0.00767725
 O                    -0.25784252    -1.32656557    -0.02301078
 C                    -0.06793121     0.67468802     1.26570018
 H                     0.37573644     1.69584531    -1.29276012
 H                    -1.14461130     0.80492349    -1.29963071
 H                    -1.14787642     0.77531450     1.29956277
 H                     0.37245821     1.66611757     1.31685812
 H                     1.43105422    -0.16022614    -0.00757554
 H                     0.40198849    -2.00258519    -0.02987003
 H                     0.24982419     0.16255850    -2.15143523
 H                     0.24443317     0.11367143     2.14006437
    12
 geometry
 C                    -0.06163600     0.73049833    -1.26512747
 C                     0.34915189    -0.03620448    -0.01535451
 O                    -0.25940116    -1.31371551    -0.04602157
 C                    -0.06799498     0.67283360     1.26589109
 H                     0.38042023     1.72259935    -1.28071111
 H                    -1.14130072     0.83394234    -1.29966469
 H                    -1.14783098     0.77472436     1.29952879
 H                     0.37386378     1.66314387     1.32890713
 H                     1.43128415    -0.14995753    -0.01515108
 H                     0.39939701    -1.99074632    -0.05974006
 H                     0.25320334     0.19908287    -2.15712065
 H                     0.24242131     0.10130873     2.13437895
    12
 geometry
 C                    -0.05852028     0.75747627    -1.26493657
 C                     0.34955080    -0.02427958    -0.02303176
 O                    -0.26095981    -1.30086546    -0.06903235
 C                    -0.06805874     0.67097918     1.26608199
 H                     0.38510401     1.74935339    -1.26866211
 H                    -1.13799015     0.86296118    -1.29969866
 H                    -1.14778553     0.77413422     1.29949482
 H                     0.37526934     1.66017017     1.34095613
 H                     1.43151407    -0.13968892    -0.02272662
 H                     0.39680554    -1.97890745    -0.08961010
 H                     0.25658250     0.23560723    -2.16280608
 H                     0.24040944     0.08894602     2.12869352
    12
 geometry
 C                    -0.05540456     0.78445422    -1.26474566
 C                     0.34994971    -0.01235468    -0.03070902
 O                    -0.26251845    -1.28801540    -0.09204314
 C                    -0.06812251     0.66912476     1.26627290
 H                     0.38978780     1.77610743    -1.25661310
 H                    -1.13467957     0.89198003    -1.29973264
 H                    -1.14774009     0.77354408     1.29946084
 H                     0.37667490     1.65719647     1.35300514
 H                     1.43174400    -0.12942031    -0.03030216
 H                     0.39421407    -1.96706858    -0.11948013
 H                     0.25996165     0.27213160    -2.16849151
 H                     0.23839757     0.07658332     2.12300809
    12
 geometry
 C                    -0.05228884     0.81143216    -1.26455476
 C                     0.35034861    -0.00042978    -0.03838627
 O                    -0.26407709    -1.27516534    -0.11505392
 C                    -0.06818628     0.66727033     1.26646380
 H                     0.39447159     1.80286147    -1.24456410
 H                    -1.13136900     0.92099887    -1.29976661
 H                    -1.14769464     0.77295394     1.29942687
 H                     0.37808046     1.65422276     1.36505414
 H                     1.43197392    -0.11915170    -0.03787770
 H                     0.39162259    -1.95522971    -0.14935016
 H                     0.26334080     0.30865596    -2.17417694
 H                     0.23638571     0.06422061     2.11732266
    12
 geometry
 C                    -0.05540456     0.78445422    -1.26474566
 C                     0.34994971    -0.01235468    -0.03070902
 O                    -0.26251845    -1.28801540    -0.09204314
 C                    -0.06812251     0.66912476     1.26627290
 H                     0.38978780     1.77610743    -1.25661310
 H                    -1.13467957     0.89198003    -1.29973264
 H                    -1.14774009     0.77354408     1.29946084
 H                     0.37667490     1.65719647     1.35300514
 H                     1.43174400    -0.12942031    -0.03030216
 H                     0.39421407    -1.96706858    -0.11948013
 H                     0.25996165     0.27213160    -2.16849151
 H                     0.23839757     0.07658332     2.12300809
    12
 geometry
 C                    -0.05852028     0.75747627    -1.26493657
 C                     0.34955080    -0.02427958    -0.02303176
 O                    -0.26095981    -1.30086546    -0.06903235
 C                    -0.06805874     0.67097918     1.26608199
 H                     0.38510401     1.74935339    -1.26866211
 H                    -1.13799015     0.86296118    -1.29969866
 H                    -1.14778553     0.77413422     1.29949482
 H                     0.37526934     1.66017017     1.34095613
 H                     1.43151407    -0.13968892    -0.02272662
 H                     0.39680554    -1.97890745    -0.08961010
 H                     0.25658250     0.23560723    -2.16280608
 H                     0.24040944     0.08894602     2.12869352
    12
 geometry
 C                    -0.06163600     0.73049833    -1.26512747
 C                     0.34915189    -0.03620448    -0.01535451
 O                    -0.25940116    -1.31371551    -0.04602157
 C                    -0.06799498     0.67283360     1.26589109
 H                     0.38042023     1.72259935    -1.28071111
 H                    -1.14130072     0.83394234    -1.29966469
 H                    -1.14783098     0.77472436     1.29952879
 H                     0.37386378     1.66314387     1.32890713
 H                     1.43128415    -0.14995753    -0.01515108
 H                     0.39939701    -1.99074632    -0.05974006
 H                     0.25320334     0.19908287    -2.15712065
 H                     0.24242131     0.10130873     2.13437895
    12
 geometry
 C                    -0.06475172     0.70352039    -1.26531838
 C                     0.34875298    -0.04812938    -0.00767725
 O                    -0.25784252    -1.32656557    -0.02301078
 C                    -0.06793121     0.67468802     1.26570018
 H                     0.37573644     1.69584531    -1.29276012
 H                    -1.14461130     0.80492349    -1.29963071
 H                    -1.14787642     0.77531450     1.29956277
 H                     0.37245821     1.66611757     1.31685812
 H                     1.43105422    -0.16022614    -0.00757554
 H                     0.40198849    -2.00258519    -0.02987003
 H                     0.24982419     0.16255850    -2.15143523
 H                     0.24443317     0.11367143     2.14006437
