    12
 geometry
 C                    -0.06786744     0.67654245    -1.26550928
 C                     0.34835407    -0.06005427     0.00000000
 O                    -0.25628388    -1.33941562     0.00000000
 C                    -0.06786744     0.67654245     1.26550928
 H                     0.37105265     1.66909128    -1.30480912
 H                    -1.14792187     0.77590465    -1.29959674
 H                    -1.14792187     0.77590465     1.29959674
 H                     0.37105265     1.66909128     1.30480912
 H                     1.43082430    -0.17049475     0.00000000
 H                     0.40457996    -2.01442405     0.00000000
 H                     0.24644504     0.12603414    -2.14574980
 H                     0.24644504     0.12603414     2.14574980
    12
 geometry
 C                    -0.06407318     0.68182946    -1.25833580
 C                     0.34904807    -0.04636366     0.00000009
 O                    -0.26281131    -1.35380711    -0.00000002
 C                    -0.06407321     0.68182937     1.25833573
 H                     0.36160571     1.67836934    -1.33384259
 H                    -1.14605806     0.75835046    -1.29197028
 H                    -1.14605804     0.75835061     1.29197046
 H                     0.36160602     1.67836913     1.33384202
 H                     1.42974560    -0.16710817     0.00000031
 H                     0.41674365    -2.01171976     0.00000011
 H                     0.25097380     0.10100949    -2.11893615
 H                     0.25097402     0.10100957     2.11893611
    12
 geometry
 C                    -0.06027893     0.68711647    -1.25116231
 C                     0.34974208    -0.03267304     0.00000018
 O                    -0.26933874    -1.36819859    -0.00000004
 C                    -0.06027897     0.68711629     1.25116219
 H                     0.35215878     1.68764741    -1.36287606
 H                    -1.14419425     0.74079627    -1.28434382
 H                    -1.14419422     0.74079658     1.28434418
 H                     0.35215938     1.68764698     1.36287492
 H                     1.42866691    -0.16372159     0.00000063
 H                     0.42890735    -2.00901547     0.00000021
 H                     0.25550256     0.07598485    -2.09212250
 H                     0.25550299     0.07598501     2.09212241
    12
 geometry
 C                    -0.05648467     0.69240348    -1.24398883
 C                     0.35043608    -0.01898243     0.00000027
 O                    -0.27586617    -1.38259007    -0.00000006
 C                    -0.05648474     0.69240322     1.24398864
 H                     0.34271184     1.69692548    -1.39190953
 H                    -1.14233044     0.72324208    -1.27671737
 H                    -1.14233039     0.72324255     1.27671790
 H                     0.34271275     1.69692483     1.39190782
 H                     1.42758821    -0.16033501     0.00000094
 H                     0.44107104    -2.00631118     0.00000032
 H                     0.26003132     0.05096020    -2.06530885
 H                     0.26003197     0.05096044     2.06530872
    12
 geometry
 C                    -0.05269042     0.69769049    -1.23681534
 C                     0.35113008    -0.00529181     0.00000036
 O                    -0.28239360    -1.39698156    -0.00000008
 C                    -0.05269050     0.69769014     1.23681509
 H                     0.33326491     1.70620355    -1.42094300
 H                    -1.14046663     0.70568789    -1.26909091
 H                    -1.14046656     0.70568852     1.26909162
 H                     0.33326611     1.70620268     1.42094073
 H                     1.42650952    -0.15694842     0.00000126
 H                     0.45323474    -2.00360689     0.00000042
 H                     0.26456009     0.02593556    -2.03849520
 H                     0.26456094     0.02593588     2.03849502
    12
 geometry
 C                    -0.04889616     0.70297750    -1.22964186
 C                     0.35182408     0.00839880     0.00000045
 O                    -0.28892103    -1.41137304    -0.00000010
 C                    -0.04889627     0.70297706     1.22964155
 H                     0.32381797     1.71548162    -1.44997647
 H                    -1.13860282     0.68813370    -1.26146445
 H                    -1.13860273     0.68813449     1.26146534
 H                     0.32381948     1.71548053     1.44997363
 H                     1.42543082    -0.15356184     0.00000157
 H                     0.46539843    -2.00090260     0.00000053
 H                     0.26908885     0.00091091    -2.01168155
 H                     0.26908992     0.00091132     2.01168133
    12
 geometry
 C                    -0.05269042     0.69769049    -1.23681534
 C                     0.35113008    -0.00529181     0.00000036
 O                    -0.28239360    -1.39698156    -0.00000008
 C                    -0.05269050     0.69769014     1.23681509
 H                     0.33326491     1.70620355    -1.42094300
 H                    -1.14046663     0.70568789    -1.26909091
 H                    -1.14046656     0.70568852     1.26909162
 H                     0.33326611     1.70620268     1.42094073
 H                     1.42650952    -0.15694842     0.00000126
 H                     0.45323474    -2.00360689     0.00000042
 H                     0.26456009     0.02593556    -2.03849520
 H                     0.26456094     0.02593588     2.03849502
    12
 geometry
 C                    -0.05648467     0.69240348    -1.24398883
 C                     0.35043608    -0.01898243     0.00000027
 O                    -0.27586617    -1.38259007    -0.00000006
 C                    -0.05648474     0.69240322     1.24398864
 H                     0.34271184     1.69692548    -1.39190953
 H                    -1.14233044     0.72324208    -1.27671737
 H                    -1.14233039     0.72324255     1.27671790
 H                     0.34271275     1.69692483     1.39190782
 H                     1.42758821    -0.16033501     0.00000094
 H                     0.44107104    -2.00631118     0.00000032
 H                     0.26003132     0.05096020    -2.06530885
 H                     0.26003197     0.05096044     2.06530872
    12
 geometry
 C                    -0.06027893     0.68711647    -1.25116231
 C                     0.34974208    -0.03267304     0.00000018
 O                    -0.26933874    -1.36819859    -0.00000004
 C                    -0.06027897     0.68711629     1.25116219
 H                     0.35215878     1.68764741    -1.36287606
 H                    -1.14419425     0.74079627    -1.28434382
 H                    -1.14419422     0.74079658     1.28434418
 H                     0.35215938     1.68764698     1.36287492
 H                     1.42866691    -0.16372159     0.00000063
 H                     0.42890735    -2.00901547     0.00000021
 H                     0.25550256     0.07598485    -2.09212250
 H                     0.25550299     0.07598501     2.09212241
    12
 geometry
 C                    -0.06407318     0.68182946    -1.25833580
 C                     0.34904807    -0.04636366     0.00000009
 O                    -0.26281131    -1.35380711    -0.00000002
 C                    -0.06407321     0.68182937     1.25833573
 H                     0.36160571     1.67836934    -1.33384259
 H                    -1.14605806     0.75835046    -1.29197028
 H                    -1.14605804     0.75835061     1.29197046
 H                     0.36160602     1.67836913     1.33384202
 H                     1.42974560    -0.16710817     0.00000031
 H                     0.41674365    -2.01171976     0.00000011
 H                     0.25097380     0.10100949    -2.11893615
 H                     0.25097402     0.10100957     2.11893611
    12
 geometry
 C                    -0.06786744     0.67654245    -1.26550928
 C                     0.34835407    -0.06005427     0.00000000
 O                    -0.25628388    -1.33941562     0.00000000
 C                    -0.06786744     0.67654245     1.26550928
 H                     0.37105265     1.66909128    -1.30480912
 H                    -1.14792187     0.77590465    -1.29959674
 H                    -1.14792187     0.77590465     1.29959674
 H                     0.37105265     1.66909128     1.30480912
 H                     1.43082430    -0.17049475     0.00000000
 H                     0.40457996    -2.01442405     0.00000000
 H                     0.24644504     0.12603414    -2.14574980
 H                     0.24644504     0.12603414     2.14574980
    12
 geometry
 C                    -0.07166170     0.67125543    -1.27268276
 C                     0.34766007    -0.07374489    -0.00000009
 O                    -0.24975645    -1.32502414     0.00000002
 C                    -0.07166167     0.67125552     1.27268283
 H                     0.38049959     1.65981321    -1.27577565
 H                    -1.14978568     0.79345883    -1.30722320
 H                    -1.14978570     0.79345868     1.30722302
 H                     0.38049928     1.65981343     1.27577622
 H                     1.43190300    -0.17388134    -0.00000031
 H                     0.39241627    -2.01712835    -0.00000011
 H                     0.24191628     0.15105878    -2.17256345
 H                     0.24191606     0.15105870     2.17256349
    12
 geometry
 C                    -0.07545595     0.66596842    -1.27985625
 C                     0.34696606    -0.08743551    -0.00000018
 O                    -0.24322902    -1.31063266     0.00000004
 C                    -0.07545591     0.66596860     1.27985637
 H                     0.38994652     1.65053514    -1.24674218
 H                    -1.15164949     0.81101302    -1.31484966
 H                    -1.15164952     0.81101271     1.31484930
 H                     0.38994592     1.65053558     1.24674332
 H                     1.43298169    -0.17726792    -0.00000063
 H                     0.38025257    -2.01983264    -0.00000021
 H                     0.23738752     0.17608342    -2.19937710
 H                     0.23738709     0.17608326     2.19937719
    12
 geometry
 C                    -0.07925021     0.66068141    -1.28702973
 C                     0.34627206    -0.10112612    -0.00000027
 O                    -0.23670159    -1.29624117     0.00000006
 C                    -0.07925014     0.66068167     1.28702992
 H                     0.39939346     1.64125707    -1.21770871
 H                    -1.15351330     0.82856721    -1.32247611
 H                    -1.15351335     0.82856674     1.32247558
 H                     0.39939255     1.64125773     1.21771042
 H                     1.43406039    -0.18065450    -0.00000094
 H                     0.36808888    -2.02253693    -0.00000032
 H                     0.23285876     0.20110807    -2.22619075
 H                     0.23285811     0.20110783     2.22619088
    12
 geometry
 C                    -0.08304446     0.65539440    -1.29420322
 C                     0.34557806    -0.11481674    -0.00000036
 O                    -0.23017416    -1.28184969     0.00000008
 C                    -0.08304438     0.65539475     1.29420347
 H                     0.40884039     1.63197900    -1.18867524
 H                    -1.15537711     0.84612140    -1.33010257
 H                    -1.15537718     0.84612077     1.33010186
 H                     0.40883919     1.63197988     1.18867751
 H                     1.43513908    -0.18404108    -0.00000126
 H                     0.35592518    -2.02524122    -0.00000042
 H                     0.22832999     0.22613271    -2.25300440
 H                     0.22832914     0.22613239     2.25300458
    12
 geometry
 C                    -0.08683872     0.65010739    -1.30137670
 C                     0.34488406    -0.12850735    -0.00000045
 O                    -0.22364673    -1.26745821     0.00000010
 C                    -0.08683861     0.65010783     1.30137701
 H                     0.41828733     1.62270093    -1.15964177
 H                    -1.15724092     0.86367559    -1.33772903
 H                    -1.15724101     0.86367481     1.33772814
 H                     0.41828582     1.62270202     1.15964461
 H                     1.43621778    -0.18742767    -0.00000157
 H                     0.34376149    -2.02794551    -0.00000053
 H                     0.22380123     0.25115736    -2.27981805
 H                     0.22380016     0.25115695     2.27981827
    12
 geometry
 C                    -0.08304446     0.65539440    -1.29420322
 C                     0.34557806    -0.11481674    -0.00000036
 O                    -0.23017416    -1.28184969     0.00000008
 C                    -0.08304438     0.65539475     1.29420347
 H                     0.40884039     1.63197900    -1.18867524
 H                    -1.15537711     0.84612140    -1.33010257
 H                    -1.15537718     0.84612077     1.33010186
 H                     0.40883919     1.63197988     1.18867751
 H                     1.43513908    -0.18404108    -0.00000126
 H                     0.35592518    -2.02524122    -0.00000042
 H                     0.22832999     0.22613271    -2.25300440
 H                     0.22832914     0.22613239     2.25300458
    12
 geometry
 C                    -0.07925021     0.66068141    -1.28702973
 C                     0.34627206    -0.10112612    -0.00000027
 O                    -0.23670159    -1.29624117     0.00000006
 C                    -0.07925014     0.66068167     1.28702992
 H                     0.39939346     1.64125707    -1.21770871
 H                    -1.15351330     0.82856721    -1.32247611
 H                    -1.15351335     0.82856674     1.32247558
 H                     0.39939255     1.64125773     1.21771042
 H                     1.43406039    -0.18065450    -0.00000094
 H                     0.36808888    -2.02253693    -0.00000032
 H                     0.23285876     0.20110807    -2.22619075
 H                     0.23285811     0.20110783     2.22619088
    12
 geometry
 C                    -0.07545595     0.66596842    -1.27985625
 C                     0.34696606    -0.08743551    -0.00000018
 O                    -0.24322902    -1.31063266     0.00000004
 C                    -0.07545591     0.66596860     1.27985637
 H                     0.38994652     1.65053514    -1.24674218
 H                    -1.15164949     0.81101302    -1.31484966
 H                    -1.15164952     0.81101271     1.31484930
 H                     0.38994592     1.65053558     1.24674332
 H                     1.43298169    -0.17726792    -0.00000063
 H                     0.38025257    -2.01983264    -0.00000021
 H                     0.23738752     0.17608342    -2.19937710
 H                     0.23738709     0.17608326     2.19937719
    12
 geometry
 C                    -0.07166170     0.67125543    -1.27268276
 C                     0.34766007    -0.07374489    -0.00000009
 O                    -0.24975645    -1.32502414     0.00000002
 C                    -0.07166167     0.67125552     1.27268283
 H                     0.38049959     1.65981321    -1.27577565
 H                    -1.14978568     0.79345883    -1.30722320
 H                    -1.14978570     0.79345868     1.30722302
 H                     0.38049928     1.65981343     1.27577622
 H                     1.43190300    -0.17388134    -0.00000031
 H                     0.39241627    -2.01712835    -0.00000011
 H                     0.24191628     0.15105878    -2.17256345
 H                     0.24191606     0.15105870     2.17256349
