    12
 geometry
 C                    -0.06786744     0.67654245    -1.26550928
 C                     0.34835407    -0.06005427     0.00000000
 O                    -0.25628388    -1.33941562     0.00000000
 C                    -0.06786744     0.67654245     1.26550928
 H                     0.37105265     1.66909128    -1.30480912
 H                    -1.14792187     0.77590465    -1.29959674
 H                    -1.14792187     0.77590465     1.29959674
 H                     0.37105265     1.66909128     1.30480912
 H                     1.43082430    -0.17049475     0.00000000
 H                     0.40457996    -2.01442405     0.00000000
 H                     0.24644504     0.12603414    -2.14574980
 H                     0.24644504     0.12603414     2.14574980
    12
 geometry
 C                    -0.06590746     0.67631562    -1.26777402
 C                     0.35085969    -0.06264067    -0.00000001
 O                    -0.25730957    -1.33927400     0.00000000
 C                    -0.06590745     0.67631563     1.26777403
 H                     0.34202879     1.68350071    -1.28195221
 H                    -1.14443245     0.79863305    -1.30594226
 H                    -1.14443245     0.79863298     1.30594228
 H                     0.34202879     1.68350071     1.28195215
 H                     1.43510941    -0.16281693     0.00000002
 H                     0.40929046    -2.00886714    -0.00000001
 H                     0.23736670     0.09925375    -2.13443584
 H                     0.23736660     0.09925370     2.13443584
    12
 geometry
 C                    -0.06394748     0.67608880    -1.27003877
 C                     0.35336532    -0.06522707    -0.00000002
 O                    -0.25833526    -1.33913238     0.00000001
 C                    -0.06394746     0.67608882     1.27003878
 H                     0.31300493     1.69791014    -1.25909529
 H                    -1.14094304     0.82136145    -1.31228777
 H                    -1.14094304     0.82136132     1.31228783
 H                     0.31300493     1.69791015     1.25909519
 H                     1.43939452    -0.15513910     0.00000004
 H                     0.41400096    -2.00331023    -0.00000001
 H                     0.22828837     0.07247337    -2.12312188
 H                     0.22828816     0.07247326     2.12312188
    12
 geometry
 C                    -0.06198749     0.67586198    -1.27230351
 C                     0.35587094    -0.06781347    -0.00000003
 O                    -0.25936095    -1.33899076     0.00000001
 C                    -0.06198747     0.67586201     1.27230353
 H                     0.28398107     1.71231957    -1.23623838
 H                    -1.13745362     0.84408986    -1.31863329
 H                    -1.13745362     0.84408966     1.31863337
 H                     0.28398107     1.71231959     1.23623822
 H                     1.44367962    -0.14746127     0.00000007
 H                     0.41871145    -1.99775332    -0.00000002
 H                     0.21921003     0.04569299    -2.11180791
 H                     0.21920973     0.04569282     2.11180793
    12
 geometry
 C                    -0.06002751     0.67563516    -1.27456826
 C                     0.35837657    -0.07039987    -0.00000004
 O                    -0.26038664    -1.33884914     0.00000001
 C                    -0.06002747     0.67563519     1.27456828
 H                     0.25495722     1.72672900    -1.21338146
 H                    -1.13396420     0.86681826    -1.32497881
 H                    -1.13396420     0.86681800     1.32497892
 H                     0.25495720     1.72672902     1.21338125
 H                     1.44796473    -0.13978345     0.00000009
 H                     0.42342195    -1.99219641    -0.00000003
 H                     0.21013170     0.01891261    -2.10049395
 H                     0.21013129     0.01891238     2.10049397
    12
 geometry
 C                    -0.05806753     0.67540834    -1.27683300
 C                     0.36088219    -0.07298627    -0.00000005
 O                    -0.26141233    -1.33870752     0.00000002
 C                    -0.05806748     0.67540838     1.27683303
 H                     0.22593336     1.74113843    -1.19052455
 H                    -1.13047479     0.88954667    -1.33132433
 H                    -1.13047478     0.88954633     1.33132446
 H                     0.22593334     1.74113846     1.19052429
 H                     1.45224984    -0.13210562     0.00000011
 H                     0.42813245    -1.98663950    -0.00000003
 H                     0.20105336    -0.00786777    -2.08917999
 H                     0.20105285    -0.00786806     2.08918001
    12
 geometry
 C                    -0.06002751     0.67563516    -1.27456826
 C                     0.35837657    -0.07039987    -0.00000004
 O                    -0.26038664    -1.33884914     0.00000001
 C                    -0.06002747     0.67563519     1.27456828
 H                     0.25495722     1.72672900    -1.21338146
 H                    -1.13396420     0.86681826    -1.32497881
 H                    -1.13396420     0.86681800     1.32497892
 H                     0.25495720     1.72672902     1.21338125
 H                     1.44796473    -0.13978345     0.00000009
 H                     0.42342195    -1.99219641    -0.00000003
 H                     0.21013170     0.01891261    -2.10049395
 H                     0.21013129     0.01891238     2.10049397
    12
 geometry
 C                    -0.06198749     0.67586198    -1.27230351
 C                     0.35587094    -0.06781347    -0.00000003
 O                    -0.25936095    -1.33899076     0.00000001
 C                    -0.06198747     0.67586201     1.27230353
 H                     0.28398107     1.71231957    -1.23623838
 H                    -1.13745362     0.84408986    -1.31863329
 H                    -1.13745362     0.84408966     1.31863337
 H                     0.28398107     1.71231959     1.23623822
 H                     1.44367962    -0.14746127     0.00000007
 H                     0.41871145    -1.99775332    -0.00000002
 H                     0.21921003     0.04569299    -2.11180791
 H                     0.21920973     0.04569282     2.11180793
    12
 geometry
 C                    -0.06394748     0.67608880    -1.27003877
 C                     0.35336532    -0.06522707    -0.00000002
 O                    -0.25833526    -1.33913238     0.00000001
 C                    -0.06394746     0.67608882     1.27003878
 H                     0.31300493     1.69791014    -1.25909529
 H                    -1.14094304     0.82136145    -1.31228777
 H                    -1.14094304     0.82136132     1.31228783
 H                     0.31300493     1.69791015     1.25909519
 H                     1.43939452    -0.15513910     0.00000004
 H                     0.41400096    -2.00331023    -0.00000001
 H                     0.22828837     0.07247337    -2.12312188
 H                     0.22828816     0.07247326     2.12312188
    12
 geometry
 C                    -0.06590746     0.67631562    -1.26777402
 C                     0.35085969    -0.06264067    -0.00000001
 O                    -0.25730957    -1.33927400     0.00000000
 C                    -0.06590745     0.67631563     1.26777403
 H                     0.34202879     1.68350071    -1.28195221
 H                    -1.14443245     0.79863305    -1.30594226
 H                    -1.14443245     0.79863298     1.30594228
 H                     0.34202879     1.68350071     1.28195215
 H                     1.43510941    -0.16281693     0.00000002
 H                     0.40929046    -2.00886714    -0.00000001
 H                     0.23736670     0.09925375    -2.13443584
 H                     0.23736660     0.09925370     2.13443584
    12
 geometry
 C                    -0.06786744     0.67654245    -1.26550928
 C                     0.34835407    -0.06005427     0.00000000
 O                    -0.25628388    -1.33941562     0.00000000
 C                    -0.06786744     0.67654245     1.26550928
 H                     0.37105265     1.66909128    -1.30480912
 H                    -1.14792187     0.77590465    -1.29959674
 H                    -1.14792187     0.77590465     1.29959674
 H                     0.37105265     1.66909128     1.30480912
 H                     1.43082430    -0.17049475     0.00000000
 H                     0.40457996    -2.01442405     0.00000000
 H                     0.24644504     0.12603414    -2.14574980
 H                     0.24644504     0.12603414     2.14574980
    12
 geometry
 C                    -0.06982742     0.67676927    -1.26324454
 C                     0.34584845    -0.05746788     0.00000001
 O                    -0.25525819    -1.33955725    -0.00000000
 C                    -0.06982743     0.67676926     1.26324453
 H                     0.40007651     1.65468185    -1.32766603
 H                    -1.15141129     0.75317624    -1.29325122
 H                    -1.15141129     0.75317631     1.29325120
 H                     0.40007651     1.65468184     1.32766609
 H                     1.42653919    -0.17817258    -0.00000002
 H                     0.39986946    -2.01998097     0.00000001
 H                     0.25552338     0.15281452    -2.15706376
 H                     0.25552348     0.15281457     2.15706376
    12
 geometry
 C                    -0.07178740     0.67699609    -1.26097979
 C                     0.34334282    -0.05488148     0.00000002
 O                    -0.25423250    -1.33969887    -0.00000001
 C                    -0.07178742     0.67699607     1.26097978
 H                     0.42910037     1.64027241    -1.35052295
 H                    -1.15490070     0.73044784    -1.28690571
 H                    -1.15490070     0.73044797     1.28690565
 H                     0.42910037     1.64027240     1.35052305
 H                     1.42225408    -0.18585041    -0.00000004
 H                     0.39515896    -2.02553788     0.00000001
 H                     0.26460171     0.17959490    -2.16837772
 H                     0.26460192     0.17959501     2.16837772
    12
 geometry
 C                    -0.07374739     0.67722291    -1.25871505
 C                     0.34083720    -0.05229508     0.00000003
 O                    -0.25320681    -1.33984049    -0.00000001
 C                    -0.07374741     0.67722288     1.25871503
 H                     0.45812423     1.62586298    -1.37337986
 H                    -1.15839012     0.70771943    -1.28056019
 H                    -1.15839012     0.70771963     1.28056011
 H                     0.45812423     1.62586296     1.37338002
 H                     1.41796898    -0.19352824    -0.00000007
 H                     0.39044847    -2.03109479     0.00000002
 H                     0.27368005     0.20637528    -2.17969169
 H                     0.27368035     0.20637545     2.17969167
    12
 geometry
 C                    -0.07570737     0.67744973    -1.25645030
 C                     0.33833157    -0.04970868     0.00000004
 O                    -0.25218112    -1.33998211    -0.00000001
 C                    -0.07570741     0.67744970     1.25645028
 H                     0.48714808     1.61145355    -1.39623678
 H                    -1.16187954     0.68499103    -1.27421467
 H                    -1.16187954     0.68499129     1.27421456
 H                     0.48714810     1.61145353     1.39623699
 H                     1.41368387    -0.20120606    -0.00000009
 H                     0.38573797    -2.03665170     0.00000003
 H                     0.28275838     0.23315566    -2.19100565
 H                     0.28275879     0.23315589     2.19100563
    12
 geometry
 C                    -0.07766735     0.67767655    -1.25418556
 C                     0.33582595    -0.04712228     0.00000005
 O                    -0.25115543    -1.34012373    -0.00000002
 C                    -0.07766740     0.67767651     1.25418553
 H                     0.51617194     1.59704412    -1.41909369
 H                    -1.16536895     0.66226262    -1.26786915
 H                    -1.16536896     0.66226296     1.26786902
 H                     0.51617196     1.59704409     1.41909395
 H                     1.40939876    -0.20888389    -0.00000011
 H                     0.38102747    -2.04220861     0.00000003
 H                     0.29183672     0.25993604    -2.20231961
 H                     0.29183723     0.25993633     2.20231959
    12
 geometry
 C                    -0.07570737     0.67744973    -1.25645030
 C                     0.33833157    -0.04970868     0.00000004
 O                    -0.25218112    -1.33998211    -0.00000001
 C                    -0.07570741     0.67744970     1.25645028
 H                     0.48714808     1.61145355    -1.39623678
 H                    -1.16187954     0.68499103    -1.27421467
 H                    -1.16187954     0.68499129     1.27421456
 H                     0.48714810     1.61145353     1.39623699
 H                     1.41368387    -0.20120606    -0.00000009
 H                     0.38573797    -2.03665170     0.00000003
 H                     0.28275838     0.23315566    -2.19100565
 H                     0.28275879     0.23315589     2.19100563
    12
 geometry
 C                    -0.07374739     0.67722291    -1.25871505
 C                     0.34083720    -0.05229508     0.00000003
 O                    -0.25320681    -1.33984049    -0.00000001
 C                    -0.07374741     0.67722288     1.25871503
 H                     0.45812423     1.62586298    -1.37337986
 H                    -1.15839012     0.70771943    -1.28056019
 H                    -1.15839012     0.70771963     1.28056011
 H                     0.45812423     1.62586296     1.37338002
 H                     1.41796898    -0.19352824    -0.00000007
 H                     0.39044847    -2.03109479     0.00000002
 H                     0.27368005     0.20637528    -2.17969169
 H                     0.27368035     0.20637545     2.17969167
    12
 geometry
 C                    -0.07178740     0.67699609    -1.26097979
 C                     0.34334282    -0.05488148     0.00000002
 O                    -0.25423250    -1.33969887    -0.00000001
 C                    -0.07178742     0.67699607     1.26097978
 H                     0.42910037     1.64027241    -1.35052295
 H                    -1.15490070     0.73044784    -1.28690571
 H                    -1.15490070     0.73044797     1.28690565
 H                     0.42910037     1.64027240     1.35052305
 H                     1.42225408    -0.18585041    -0.00000004
 H                     0.39515896    -2.02553788     0.00000001
 H                     0.26460171     0.17959490    -2.16837772
 H                     0.26460192     0.17959501     2.16837772
    12
 geometry
 C                    -0.06982742     0.67676927    -1.26324454
 C                     0.34584845    -0.05746788     0.00000001
 O                    -0.25525819    -1.33955725    -0.00000000
 C                    -0.06982743     0.67676926     1.26324453
 H                     0.40007651     1.65468185    -1.32766603
 H                    -1.15141129     0.75317624    -1.29325122
 H                    -1.15141129     0.75317631     1.29325120
 H                     0.40007651     1.65468184     1.32766609
 H                     1.42653919    -0.17817258    -0.00000002
 H                     0.39986946    -2.01998097     0.00000001
 H                     0.25552338     0.15281452    -2.15706376
 H                     0.25552348     0.15281457     2.15706376
