    12
 geometry
 C                    -0.06786744     0.67654245    -1.26550928
 C                     0.34835407    -0.06005427     0.00000000
 O                    -0.25628388    -1.33941562     0.00000000
 C                    -0.06786744     0.67654245     1.26550928
 H                     0.37105265     1.66909128    -1.30480912
 H                    -1.14792187     0.77590465    -1.29959674
 H                    -1.14792187     0.77590465     1.29959674
 H                     0.37105265     1.66909128     1.30480912
 H                     1.43082430    -0.17049475     0.00000000
 H                     0.40457996    -2.01442405     0.00000000
 H                     0.24644504     0.12603414    -2.14574980
 H                     0.24644504     0.12603414     2.14574980
    12
 geometry
 C                    -0.06648292     0.67679017    -1.26641747
 C                     0.34835409    -0.06005429    -0.00020607
 O                    -0.25628389    -1.33941563     0.00683935
 C                    -0.06925196     0.67629476     1.26460105
 H                     0.37366507     1.66880902    -1.30676930
 H                    -1.14641500     0.77713748    -1.30053593
 H                    -1.14942876     0.77467168     1.29865748
 H                     0.36844016     1.66937357     1.30284888
 H                     1.43082431    -0.17049481     0.00267972
 H                     0.40457993    -2.01442409    -0.07877883
 H                     0.24707783     0.12604038    -2.14703277
 H                     0.24581226     0.12602792     2.14446679
    12
 geometry
 C                    -0.06509840     0.67703789    -1.26732566
 C                     0.34835411    -0.06005430    -0.00041215
 O                    -0.25628389    -1.33941564     0.01367871
 C                    -0.07063648     0.67604707     1.26369281
 H                     0.37627749     1.66852677    -1.30872949
 H                    -1.14490812     0.77837032    -1.30147512
 H                    -1.15093565     0.77343871     1.29771823
 H                     0.36582767     1.66965586     1.30088865
 H                     1.43082433    -0.17049486     0.00535944
 H                     0.40457990    -2.01442412    -0.15755765
 H                     0.24771061     0.12604662    -2.14831574
 H                     0.24517947     0.12602170     2.14318378
    12
 geometry
 C                    -0.06371388     0.67728561    -1.26823385
 C                     0.34835413    -0.06005431    -0.00061822
 O                    -0.25628390    -1.33941565     0.02051806
 C                    -0.07202100     0.67579938     1.26278458
 H                     0.37888992     1.66824452    -1.31068967
 H                    -1.14340125     0.77960316    -1.30241431
 H                    -1.15244254     0.77220574     1.29677897
 H                     0.36321518     1.66993815     1.29892841
 H                     1.43082434    -0.17049491     0.00803916
 H                     0.40457987    -2.01442416    -0.23633648
 H                     0.24834340     0.12605286    -2.14959871
 H                     0.24454669     0.12601548     2.14190077
    12
 geometry
 C                    -0.06232936     0.67753333    -1.26914203
 C                     0.34835415    -0.06005432    -0.00082429
 O                    -0.25628391    -1.33941565     0.02735741
 C                    -0.07340552     0.67555169     1.26187634
 H                     0.38150234     1.66796227    -1.31264985
 H                    -1.14189437     0.78083600    -1.30335349
 H                    -1.15394944     0.77097277     1.29583971
 H                     0.36060269     1.67022044     1.29696817
 H                     1.43082436    -0.17049496     0.01071889
 H                     0.40457984    -2.01442419    -0.31511530
 H                     0.24897618     0.12605911    -2.15088168
 H                     0.24391390     0.12600926     2.14061776
    12
 geometry
 C                    -0.06094485     0.67778106    -1.27005022
 C                     0.34835417    -0.06005433    -0.00103036
 O                    -0.25628391    -1.33941566     0.03419676
 C                    -0.07479005     0.67530400     1.26096811
 H                     0.38411476     1.66768002    -1.31461003
 H                    -1.14038750     0.78206883    -1.30429268
 H                    -1.15545633     0.76973980     1.29490045
 H                     0.35799020     1.67050273     1.29500794
 H                     1.43082437    -0.17049501     0.01339861
 H                     0.40457980    -2.01442423    -0.39389413
 H                     0.24960897     0.12606535    -2.15216465
 H                     0.24328112     0.12600304     2.13933475
    12
 geometry
 C                    -0.06232936     0.67753333    -1.26914203
 C                     0.34835415    -0.06005432    -0.00082429
 O                    -0.25628391    -1.33941565     0.02735741
 C                    -0.07340552     0.67555169     1.26187634
 H                     0.38150234     1.66796227    -1.31264985
 H                    -1.14189437     0.78083600    -1.30335349
 H                    -1.15394944     0.77097277     1.29583971
 H                     0.36060269     1.67022044     1.29696817
 H                     1.43082436    -0.17049496     0.01071889
 H                     0.40457984    -2.01442419    -0.31511530
 H                     0.24897618     0.12605911    -2.15088168
 H                     0.24391390     0.12600926     2.14061776
    12
 geometry
 C                    -0.06371388     0.67728561    -1.26823385
 C                     0.34835413    -0.06005431    -0.00061822
 O                    -0.25628390    -1.33941565     0.02051806
 C                    -0.07202100     0.67579938     1.26278458
 H                     0.37888992     1.66824452    -1.31068967
 H                    -1.14340125     0.77960316    -1.30241431
 H                    -1.15244254     0.77220574     1.29677897
 H                     0.36321518     1.66993815     1.29892841
 H                     1.43082434    -0.17049491     0.00803916
 H                     0.40457987    -2.01442416    -0.23633648
 H                     0.24834340     0.12605286    -2.14959871
 H                     0.24454669     0.12601548     2.14190077
    12
 geometry
 C                    -0.06509840     0.67703789    -1.26732566
 C                     0.34835411    -0.06005430    -0.00041215
 O                    -0.25628389    -1.33941564     0.01367871
 C                    -0.07063648     0.67604707     1.26369281
 H                     0.37627749     1.66852677    -1.30872949
 H                    -1.14490812     0.77837032    -1.30147512
 H                    -1.15093565     0.77343871     1.29771823
 H                     0.36582767     1.66965586     1.30088865
 H                     1.43082433    -0.17049486     0.00535944
 H                     0.40457990    -2.01442412    -0.15755765
 H                     0.24771061     0.12604662    -2.14831574
 H                     0.24517947     0.12602170     2.14318378
    12
 geometry
 C                    -0.06648292     0.67679017    -1.26641747
 C                     0.34835409    -0.06005429    -0.00020607
 O                    -0.25628389    -1.33941563     0.00683935
 C                    -0.06925196     0.67629476     1.26460105
 H                     0.37366507     1.66880902    -1.30676930
 H                    -1.14641500     0.77713748    -1.30053593
 H                    -1.14942876     0.77467168     1.29865748
 H                     0.36844016     1.66937357     1.30284888
 H                     1.43082431    -0.17049481     0.00267972
 H                     0.40457993    -2.01442409    -0.07877883
 H                     0.24707783     0.12604038    -2.14703277
 H                     0.24581226     0.12602792     2.14446679
    12
 geometry
 C                    -0.06786744     0.67654245    -1.26550928
 C                     0.34835407    -0.06005427     0.00000000
 O                    -0.25628388    -1.33941562     0.00000000
 C                    -0.06786744     0.67654245     1.26550928
 H                     0.37105265     1.66909128    -1.30480912
 H                    -1.14792187     0.77590465    -1.29959674
 H                    -1.14792187     0.77590465     1.29959674
 H                     0.37105265     1.66909128     1.30480912
 H                     1.43082430    -0.17049475     0.00000000
 H                     0.40457996    -2.01442405     0.00000000
 H                     0.24644504     0.12603414    -2.14574980
 H                     0.24644504     0.12603414     2.14574980
    12
 geometry
 C                    -0.06925196     0.67629472    -1.26460109
 C                     0.34835405    -0.06005426     0.00020607
 O                    -0.25628387    -1.33941562    -0.00683935
 C                    -0.06648292     0.67679013     1.26641751
 H                     0.36844023     1.66937353    -1.30284894
 H                    -1.14942874     0.77467181    -1.29865755
 H                    -1.14641498     0.77713761     1.30053600
 H                     0.37366514     1.66880898     1.30676936
 H                     1.43082429    -0.17049470    -0.00267972
 H                     0.40457999    -2.01442402     0.07877883
 H                     0.24581225     0.12602789    -2.14446683
 H                     0.24707782     0.12604036     2.14703281
    12
 geometry
 C                    -0.07063648     0.67604700    -1.26369290
 C                     0.34835403    -0.06005425     0.00041215
 O                    -0.25628387    -1.33941561    -0.01367871
 C                    -0.06509840     0.67703782     1.26732575
 H                     0.36582781     1.66965578    -1.30088875
 H                    -1.15093562     0.77343897    -1.29771836
 H                    -1.14490809     0.77837058     1.30147525
 H                     0.37627763     1.66852669     1.30872959
 H                     1.43082427    -0.17049465    -0.00535944
 H                     0.40458002    -2.01442399     0.15755765
 H                     0.24517947     0.12602165    -2.14318386
 H                     0.24771061     0.12604658     2.14831582
    12
 geometry
 C                    -0.07202100     0.67579928    -1.26278471
 C                     0.34835401    -0.06005424     0.00061822
 O                    -0.25628386    -1.33941560    -0.02051806
 C                    -0.06371388     0.67728551     1.26823398
 H                     0.36321538     1.66993803    -1.29892857
 H                    -1.15244249     0.77220613    -1.29677917
 H                    -1.14340120     0.77960355     1.30241451
 H                     0.37889012     1.66824440     1.31068983
 H                     1.43082426    -0.17049460    -0.00803916
 H                     0.40458005    -2.01442395     0.23633648
 H                     0.24454668     0.12601541    -2.14190089
 H                     0.24834339     0.12605280     2.14959883
    12
 geometry
 C                    -0.07340552     0.67555156    -1.26187653
 C                     0.34835399    -0.06005423     0.00082429
 O                    -0.25628385    -1.33941560    -0.02735741
 C                    -0.06232936     0.67753320     1.26914222
 H                     0.36060296     1.67022028    -1.29696839
 H                    -1.15394937     0.77097329    -1.29583999
 H                    -1.14189430     0.78083652     1.30335377
 H                     0.38150261     1.66796211     1.31265007
 H                     1.43082424    -0.17049455    -0.01071889
 H                     0.40458008    -2.01442392     0.31511530
 H                     0.24391390     0.12600917    -2.14061792
 H                     0.24897618     0.12605902     2.15088184
    12
 geometry
 C                    -0.07479003     0.67530383    -1.26096834
 C                     0.34835397    -0.06005422     0.00103036
 O                    -0.25628385    -1.33941559    -0.03419676
 C                    -0.06094483     0.67778089     1.27005045
 H                     0.35799054     1.67050253    -1.29500821
 H                    -1.15545624     0.76974046    -1.29490080
 H                    -1.14038741     0.78206949     1.30429303
 H                     0.38411510     1.66767982     1.31461030
 H                     1.43082423    -0.17049450    -0.01339861
 H                     0.40458012    -2.01442388     0.39389413
 H                     0.24328111     0.12600292    -2.13933495
 H                     0.24960896     0.12606524     2.15216485
    12
 geometry
 C                    -0.07340552     0.67555156    -1.26187653
 C                     0.34835399    -0.06005423     0.00082429
 O                    -0.25628385    -1.33941560    -0.02735741
 C                    -0.06232936     0.67753320     1.26914222
 H                     0.36060296     1.67022028    -1.29696839
 H                    -1.15394937     0.77097329    -1.29583999
 H                    -1.14189430     0.78083652     1.30335377
 H                     0.38150261     1.66796211     1.31265007
 H                     1.43082424    -0.17049455    -0.01071889
 H                     0.40458008    -2.01442392     0.31511530
 H                     0.24391390     0.12600917    -2.14061792
 H                     0.24897618     0.12605902     2.15088184
    12
 geometry
 C                    -0.07202100     0.67579928    -1.26278471
 C                     0.34835401    -0.06005424     0.00061822
 O                    -0.25628386    -1.33941560    -0.02051806
 C                    -0.06371388     0.67728551     1.26823398
 H                     0.36321538     1.66993803    -1.29892857
 H                    -1.15244249     0.77220613    -1.29677917
 H                    -1.14340120     0.77960355     1.30241451
 H                     0.37889012     1.66824440     1.31068983
 H                     1.43082426    -0.17049460    -0.00803916
 H                     0.40458005    -2.01442395     0.23633648
 H                     0.24454668     0.12601541    -2.14190089
 H                     0.24834339     0.12605280     2.14959883
    12
 geometry
 C                    -0.07063648     0.67604700    -1.26369290
 C                     0.34835403    -0.06005425     0.00041215
 O                    -0.25628387    -1.33941561    -0.01367871
 C                    -0.06509840     0.67703782     1.26732575
 H                     0.36582781     1.66965578    -1.30088875
 H                    -1.15093562     0.77343897    -1.29771836
 H                    -1.14490809     0.77837058     1.30147525
 H                     0.37627763     1.66852669     1.30872959
 H                     1.43082427    -0.17049465    -0.00535944
 H                     0.40458002    -2.01442399     0.15755765
 H                     0.24517947     0.12602165    -2.14318386
 H                     0.24771061     0.12604658     2.14831582
    12
 geometry
 C                    -0.06925196     0.67629472    -1.26460109
 C                     0.34835405    -0.06005426     0.00020607
 O                    -0.25628387    -1.33941562    -0.00683935
 C                    -0.06648292     0.67679013     1.26641751
 H                     0.36844023     1.66937353    -1.30284894
 H                    -1.14942874     0.77467181    -1.29865755
 H                    -1.14641498     0.77713761     1.30053600
 H                     0.37366514     1.66880898     1.30676936
 H                     1.43082429    -0.17049470    -0.00267972
 H                     0.40457999    -2.01442402     0.07877883
 H                     0.24581225     0.12602789    -2.14446683
 H                     0.24707782     0.12604036     2.14703281
