    12
 geometry
 C                    -0.06786744     0.67654245    -1.26550928
 C                     0.34835407    -0.06005427     0.00000000
 O                    -0.25628388    -1.33941562     0.00000000
 C                    -0.06786744     0.67654245     1.26550928
 H                     0.37105265     1.66909128    -1.30480912
 H                    -1.14792187     0.77590465    -1.29959674
 H                    -1.14792187     0.77590465     1.29959674
 H                     0.37105265     1.66909128     1.30480912
 H                     1.43082430    -0.17049475     0.00000000
 H                     0.40457996    -2.01442405     0.00000000
 H                     0.24644504     0.12603414    -2.14574980
 H                     0.24644504     0.12603414     2.14574980
    12
 geometry
 C                    -0.07051774     0.67161265    -1.25835137
 C                     0.36625591    -0.06027791    -0.00000001
 O                    -0.26020139    -1.32801834     0.00000000
 C                    -0.07051775     0.67161265     1.25835136
 H                     0.35298424     1.67033819    -1.31073451
 H                    -1.15285544     0.75501016    -1.26457338
 H                    -1.15285544     0.75501010     1.26457336
 H                     0.35298423     1.67033819     1.31073457
 H                     1.44769914    -0.17924469    -0.00000005
 H                     0.38418763    -2.01907498     0.00000017
 H                     0.22727230     0.12197021    -2.14492943
 H                     0.22727232     0.12197013     2.14492937
    12
 geometry
 C                    -0.07316805     0.66668286    -1.25119345
 C                     0.38415774    -0.06050154    -0.00000002
 O                    -0.26411890    -1.31662105     0.00000001
 C                    -0.07316805     0.66668285     1.25119345
 H                     0.33491582     1.67158511    -1.31665991
 H                    -1.15778901     0.73411567    -1.22955001
 H                    -1.15778901     0.73411555     1.22954997
 H                     0.33491581     1.67158510     1.31666002
 H                     1.46457398    -0.18799463    -0.00000010
 H                     0.36379531    -2.02372590     0.00000034
 H                     0.20809956     0.11790629    -2.14410906
 H                     0.20809960     0.11790612     2.14410894
    12
 geometry
 C                    -0.07581835     0.66175307    -1.24403554
 C                     0.40205958    -0.06072517    -0.00000003
 O                    -0.26803641    -1.30522376     0.00000001
 C                    -0.07581836     0.66175306     1.24403553
 H                     0.31684741     1.67283203    -1.32258530
 H                    -1.16272258     0.71322118    -1.19452665
 H                    -1.16272259     0.71322100     1.19452659
 H                     0.31684738     1.67283201     1.32258548
 H                     1.48144882    -0.19674456    -0.00000014
 H                     0.34340298    -2.02837682     0.00000051
 H                     0.18892682     0.11384237    -2.14328870
 H                     0.18892687     0.11384211     2.14328852
    12
 geometry
 C                    -0.07846866     0.65682328    -1.23687763
 C                     0.41996141    -0.06094880    -0.00000004
 O                    -0.27195391    -1.29382648     0.00000001
 C                    -0.07846867     0.65682326     1.23687762
 H                     0.29877899     1.67407895    -1.32851070
 H                    -1.16765616     0.69232669    -1.15950329
 H                    -1.16765616     0.69232646     1.15950320
 H                     0.29877896     1.67407892     1.32851093
 H                     1.49832366    -0.20549450    -0.00000019
 H                     0.32301066    -2.03302774     0.00000068
 H                     0.16975408     0.10977844    -2.14246833
 H                     0.16975415     0.10977811     2.14246809
    12
 geometry
 C                    -0.08111896     0.65189348    -1.22971971
 C                     0.43786325    -0.06117243    -0.00000005
 O                    -0.27587142    -1.28242919     0.00000001
 C                    -0.08111898     0.65189346     1.22971970
 H                     0.28071058     1.67532587    -1.33443609
 H                    -1.17258973     0.67143220    -1.12447992
 H                    -1.17258973     0.67143191     1.12447982
 H                     0.28071054     1.67532583     1.33443638
 H                     1.51519850    -0.21424444    -0.00000024
 H                     0.30261833    -2.03767866     0.00000085
 H                     0.15058134     0.10571452    -2.14164796
 H                     0.15058143     0.10571410     2.14164766
    12
 geometry
 C                    -0.07846866     0.65682328    -1.23687763
 C                     0.41996141    -0.06094880    -0.00000004
 O                    -0.27195391    -1.29382648     0.00000001
 C                    -0.07846867     0.65682326     1.23687762
 H                     0.29877899     1.67407895    -1.32851070
 H                    -1.16765616     0.69232669    -1.15950329
 H                    -1.16765616     0.69232646     1.15950320
 H                     0.29877896     1.67407892     1.32851093
 H                     1.49832366    -0.20549450    -0.00000019
 H                     0.32301066    -2.03302774     0.00000068
 H                     0.16975408     0.10977844    -2.14246833
 H                     0.16975415     0.10977811     2.14246809
    12
 geometry
 C                    -0.07581835     0.66175307    -1.24403554
 C                     0.40205958    -0.06072517    -0.00000003
 O                    -0.26803641    -1.30522376     0.00000001
 C                    -0.07581836     0.66175306     1.24403553
 H                     0.31684741     1.67283203    -1.32258530
 H                    -1.16272258     0.71322118    -1.19452665
 H                    -1.16272259     0.71322100     1.19452659
 H                     0.31684738     1.67283201     1.32258548
 H                     1.48144882    -0.19674456    -0.00000014
 H                     0.34340298    -2.02837682     0.00000051
 H                     0.18892682     0.11384237    -2.14328870
 H                     0.18892687     0.11384211     2.14328852
    12
 geometry
 C                    -0.07316805     0.66668286    -1.25119345
 C                     0.38415774    -0.06050154    -0.00000002
 O                    -0.26411890    -1.31662105     0.00000001
 C                    -0.07316805     0.66668285     1.25119345
 H                     0.33491582     1.67158511    -1.31665991
 H                    -1.15778901     0.73411567    -1.22955001
 H                    -1.15778901     0.73411555     1.22954997
 H                     0.33491581     1.67158510     1.31666002
 H                     1.46457398    -0.18799463    -0.00000010
 H                     0.36379531    -2.02372590     0.00000034
 H                     0.20809956     0.11790629    -2.14410906
 H                     0.20809960     0.11790612     2.14410894
    12
 geometry
 C                    -0.07051774     0.67161265    -1.25835137
 C                     0.36625591    -0.06027791    -0.00000001
 O                    -0.26020139    -1.32801834     0.00000000
 C                    -0.07051775     0.67161265     1.25835136
 H                     0.35298424     1.67033819    -1.31073451
 H                    -1.15285544     0.75501016    -1.26457338
 H                    -1.15285544     0.75501010     1.26457336
 H                     0.35298423     1.67033819     1.31073457
 H                     1.44769914    -0.17924469    -0.00000005
 H                     0.38418763    -2.01907498     0.00000017
 H                     0.22727230     0.12197021    -2.14492943
 H                     0.22727232     0.12197013     2.14492937
    12
 geometry
 C                    -0.06786744     0.67654245    -1.26550928
 C                     0.34835407    -0.06005427     0.00000000
 O                    -0.25628388    -1.33941562     0.00000000
 C                    -0.06786744     0.67654245     1.26550928
 H                     0.37105265     1.66909128    -1.30480912
 H                    -1.14792187     0.77590465    -1.29959674
 H                    -1.14792187     0.77590465     1.29959674
 H                     0.37105265     1.66909128     1.30480912
 H                     1.43082430    -0.17049475     0.00000000
 H                     0.40457996    -2.01442405     0.00000000
 H                     0.24644504     0.12603414    -2.14574980
 H                     0.24644504     0.12603414     2.14574980
    12
 geometry
 C                    -0.06521714     0.68147224    -1.27266719
 C                     0.33045223    -0.05983064     0.00000001
 O                    -0.25236637    -1.35081291    -0.00000000
 C                    -0.06521713     0.68147224     1.27266720
 H                     0.38912106     1.66784436    -1.29888373
 H                    -1.14298830     0.79679913    -1.33462010
 H                    -1.14298830     0.79679919     1.33462012
 H                     0.38912107     1.66784436     1.29888367
 H                     1.41394946    -0.16174482     0.00000005
 H                     0.42497229    -2.00977313    -0.00000017
 H                     0.26561778     0.13009806    -2.14657017
 H                     0.26561776     0.13009814     2.14657023
    12
 geometry
 C                    -0.06256683     0.68640203    -1.27982511
 C                     0.31255040    -0.05960701     0.00000002
 O                    -0.24844886    -1.36221020    -0.00000001
 C                    -0.06256683     0.68640204     1.27982511
 H                     0.40718948     1.66659744    -1.29295833
 H                    -1.13805473     0.81769362    -1.36964347
 H                    -1.13805473     0.81769374     1.36964351
 H                     0.40718949     1.66659745     1.29295822
 H                     1.39707462    -0.15299488     0.00000010
 H                     0.44536461    -2.00512221    -0.00000034
 H                     0.28479052     0.13416198    -2.14739054
 H                     0.28479048     0.13416215     2.14739066
    12
 geometry
 C                    -0.05991653     0.69133182    -1.28698302
 C                     0.29464856    -0.05938338     0.00000003
 O                    -0.24453135    -1.37360749    -0.00000001
 C                    -0.05991652     0.69133183     1.28698303
 H                     0.42525789     1.66535052    -1.28703294
 H                    -1.13312116     0.83858811    -1.40466683
 H                    -1.13312115     0.83858829     1.40466689
 H                     0.42525792     1.66535054     1.28703276
 H                     1.38019978    -0.14424495     0.00000014
 H                     0.46575694    -2.00047129    -0.00000051
 H                     0.30396326     0.13822590    -2.14821090
 H                     0.30396321     0.13822616     2.14821108
    12
 geometry
 C                    -0.05726622     0.69626161    -1.29414093
 C                     0.27674673    -0.05915975     0.00000004
 O                    -0.24061385    -1.38500477    -0.00000001
 C                    -0.05726621     0.69626163     1.29414094
 H                     0.44332631     1.66410360    -1.28110754
 H                    -1.12818758     0.85948260    -1.43969019
 H                    -1.12818758     0.85948284     1.43969028
 H                     0.44332634     1.66410363     1.28110731
 H                     1.36332494    -0.13549501     0.00000019
 H                     0.48614926    -1.99582037    -0.00000068
 H                     0.32313600     0.14228983    -2.14903127
 H                     0.32313593     0.14229016     2.14903151
    12
 geometry
 C                    -0.05461592     0.70119141    -1.30129885
 C                     0.25884489    -0.05893612     0.00000005
 O                    -0.23669634    -1.39640206    -0.00000001
 C                    -0.05461590     0.70119143     1.30129886
 H                     0.46139472     1.66285668    -1.27518215
 H                    -1.12325401     0.88037709    -1.47471356
 H                    -1.12325401     0.88037738     1.47471366
 H                     0.46139476     1.66285672     1.27518186
 H                     1.34645010    -0.12674507     0.00000024
 H                     0.50654159    -1.99116945    -0.00000085
 H                     0.34230874     0.14635375    -2.14985164
 H                     0.34230865     0.14635417     2.14985194
    12
 geometry
 C                    -0.05726622     0.69626161    -1.29414093
 C                     0.27674673    -0.05915975     0.00000004
 O                    -0.24061385    -1.38500477    -0.00000001
 C                    -0.05726621     0.69626163     1.29414094
 H                     0.44332631     1.66410360    -1.28110754
 H                    -1.12818758     0.85948260    -1.43969019
 H                    -1.12818758     0.85948284     1.43969028
 H                     0.44332634     1.66410363     1.28110731
 H                     1.36332494    -0.13549501     0.00000019
 H                     0.48614926    -1.99582037    -0.00000068
 H                     0.32313600     0.14228983    -2.14903127
 H                     0.32313593     0.14229016     2.14903151
    12
 geometry
 C                    -0.05991653     0.69133182    -1.28698302
 C                     0.29464856    -0.05938338     0.00000003
 O                    -0.24453135    -1.37360749    -0.00000001
 C                    -0.05991652     0.69133183     1.28698303
 H                     0.42525789     1.66535052    -1.28703294
 H                    -1.13312116     0.83858811    -1.40466683
 H                    -1.13312115     0.83858829     1.40466689
 H                     0.42525792     1.66535054     1.28703276
 H                     1.38019978    -0.14424495     0.00000014
 H                     0.46575694    -2.00047129    -0.00000051
 H                     0.30396326     0.13822590    -2.14821090
 H                     0.30396321     0.13822616     2.14821108
    12
 geometry
 C                    -0.06256683     0.68640203    -1.27982511
 C                     0.31255040    -0.05960701     0.00000002
 O                    -0.24844886    -1.36221020    -0.00000001
 C                    -0.06256683     0.68640204     1.27982511
 H                     0.40718948     1.66659744    -1.29295833
 H                    -1.13805473     0.81769362    -1.36964347
 H                    -1.13805473     0.81769374     1.36964351
 H                     0.40718949     1.66659745     1.29295822
 H                     1.39707462    -0.15299488     0.00000010
 H                     0.44536461    -2.00512221    -0.00000034
 H                     0.28479052     0.13416198    -2.14739054
 H                     0.28479048     0.13416215     2.14739066
    12
 geometry
 C                    -0.06521714     0.68147224    -1.27266719
 C                     0.33045223    -0.05983064     0.00000001
 O                    -0.25236637    -1.35081291    -0.00000000
 C                    -0.06521713     0.68147224     1.27266720
 H                     0.38912106     1.66784436    -1.29888373
 H                    -1.14298830     0.79679913    -1.33462010
 H                    -1.14298830     0.79679919     1.33462012
 H                     0.38912107     1.66784436     1.29888367
 H                     1.41394946    -0.16174482     0.00000005
 H                     0.42497229    -2.00977313    -0.00000017
 H                     0.26561778     0.13009806    -2.14657017
 H                     0.26561776     0.13009814     2.14657023
