    12
 geometry
 C                    -0.06786744     0.67654245    -1.26550928
 C                     0.34835407    -0.06005427     0.00000000
 O                    -0.25628388    -1.33941562     0.00000000
 C                    -0.06786744     0.67654245     1.26550928
 H                     0.37105265     1.66909128    -1.30480912
 H                    -1.14792187     0.77590465    -1.29959674
 H                    -1.14792187     0.77590465     1.29959674
 H                     0.37105265     1.66909128     1.30480912
 H                     1.43082430    -0.17049475     0.00000000
 H                     0.40457996    -2.01442405     0.00000000
 H                     0.24644504     0.12603414    -2.14574980
 H                     0.24644504     0.12603414     2.14574980
    12
 geometry
 C                    -0.06728622     0.67447563    -1.26982857
 C                     0.33581912    -0.06697171    -0.00282876
 O                    -0.29068923    -1.33599691    -0.00078984
 C                    -0.06833465     0.67900481     1.26118999
 H                     0.38861756     1.65945089    -1.31072272
 H                    -1.14562795     0.79224013    -1.30454123
 H                    -1.14670463     0.79689130     1.29465225
 H                     0.38753656     1.66412072     1.29889552
 H                     1.41640139    -0.19591678    -0.00218273
 H                     0.35863549    -2.02230266     0.00069182
 H                     0.23798007     0.11701906    -2.14895377
 H                     0.23620238     0.12469856     2.14254583
    12
 geometry
 C                    -0.06670499     0.67240882    -1.27414785
 C                     0.32328416    -0.07388915    -0.00565751
 O                    -0.32509459    -1.33257820    -0.00157969
 C                    -0.06880187     0.68146717     1.25687071
 H                     0.40618246     1.64981051    -1.31663633
 H                    -1.14333403     0.80857561    -1.30948572
 H                    -1.14548739     0.81787795     1.28970776
 H                     0.40402047     1.65915017     1.29298191
 H                     1.40197848    -0.22133881    -0.00436546
 H                     0.31269101    -2.03018127     0.00138363
 H                     0.22951511     0.10800398    -2.15215774
 H                     0.22595972     0.12336298     2.13934186
    12
 geometry
 C                    -0.06612377     0.67034201    -1.27846714
 C                     0.31074921    -0.08080659    -0.00848627
 O                    -0.35949994    -1.32915949    -0.00236953
 C                    -0.06926908     0.68392953     1.25255142
 H                     0.42374737     1.64017013    -1.32254993
 H                    -1.14104011     0.82491109    -1.31443020
 H                    -1.14427015     0.83886461     1.28476328
 H                     0.42050438     1.65417961     1.28706831
 H                     1.38755557    -0.24676085    -0.00654818
 H                     0.26674654    -2.03805988     0.00207545
 H                     0.22105014     0.09898890    -2.15536171
 H                     0.21571706     0.12202740     2.13613789
    12
 geometry
 C                    -0.06554254     0.66827520    -1.28278642
 C                     0.29821426    -0.08772403    -0.01131502
 O                    -0.39390530    -1.32574077    -0.00315937
 C                    -0.06973630     0.68639190     1.24823214
 H                     0.44131228     1.63052975    -1.32846353
 H                    -1.13874619     0.84124657    -1.31937469
 H                    -1.14305291     0.85985126     1.27981879
 H                     0.43698829     1.64920906     1.28115471
 H                     1.37313266    -0.27218288    -0.00873091
 H                     0.22080206    -2.04593849     0.00276727
 H                     0.21258517     0.08997383    -2.15856568
 H                     0.20547440     0.12069182     2.13293392
    12
 geometry
 C                    -0.06496132     0.66620838    -1.28710571
 C                     0.28567930    -0.09464147    -0.01414378
 O                    -0.42831065    -1.32232206    -0.00394921
 C                    -0.07020351     0.68885426     1.24391285
 H                     0.45887719     1.62088937    -1.33437713
 H                    -1.13645227     0.85758206    -1.32431918
 H                    -1.14183567     0.88083792     1.27487430
 H                     0.45347220     1.64423851     1.27524111
 H                     1.35870975    -0.29760491    -0.01091364
 H                     0.17485759    -2.05381710     0.00345908
 H                     0.20412020     0.08095875    -2.16176965
 H                     0.19523174     0.11935625     2.12972995
    12
 geometry
 C                    -0.06554254     0.66827520    -1.28278642
 C                     0.29821426    -0.08772403    -0.01131502
 O                    -0.39390530    -1.32574077    -0.00315937
 C                    -0.06973630     0.68639190     1.24823214
 H                     0.44131228     1.63052975    -1.32846353
 H                    -1.13874619     0.84124657    -1.31937469
 H                    -1.14305291     0.85985126     1.27981879
 H                     0.43698829     1.64920906     1.28115471
 H                     1.37313266    -0.27218288    -0.00873091
 H                     0.22080206    -2.04593849     0.00276727
 H                     0.21258517     0.08997383    -2.15856568
 H                     0.20547440     0.12069182     2.13293392
    12
 geometry
 C                    -0.06612377     0.67034201    -1.27846714
 C                     0.31074921    -0.08080659    -0.00848627
 O                    -0.35949994    -1.32915949    -0.00236953
 C                    -0.06926908     0.68392953     1.25255142
 H                     0.42374737     1.64017013    -1.32254993
 H                    -1.14104011     0.82491109    -1.31443020
 H                    -1.14427015     0.83886461     1.28476328
 H                     0.42050438     1.65417961     1.28706831
 H                     1.38755557    -0.24676085    -0.00654818
 H                     0.26674654    -2.03805988     0.00207545
 H                     0.22105014     0.09898890    -2.15536171
 H                     0.21571706     0.12202740     2.13613789
    12
 geometry
 C                    -0.06670499     0.67240882    -1.27414785
 C                     0.32328416    -0.07388915    -0.00565751
 O                    -0.32509459    -1.33257820    -0.00157969
 C                    -0.06880187     0.68146717     1.25687071
 H                     0.40618246     1.64981051    -1.31663633
 H                    -1.14333403     0.80857561    -1.30948572
 H                    -1.14548739     0.81787795     1.28970776
 H                     0.40402047     1.65915017     1.29298191
 H                     1.40197848    -0.22133881    -0.00436546
 H                     0.31269101    -2.03018127     0.00138363
 H                     0.22951511     0.10800398    -2.15215774
 H                     0.22595972     0.12336298     2.13934186
    12
 geometry
 C                    -0.06728622     0.67447563    -1.26982857
 C                     0.33581912    -0.06697171    -0.00282876
 O                    -0.29068923    -1.33599691    -0.00078984
 C                    -0.06833465     0.67900481     1.26118999
 H                     0.38861756     1.65945089    -1.31072272
 H                    -1.14562795     0.79224013    -1.30454123
 H                    -1.14670463     0.79689130     1.29465225
 H                     0.38753656     1.66412072     1.29889552
 H                     1.41640139    -0.19591678    -0.00218273
 H                     0.35863549    -2.02230266     0.00069182
 H                     0.23798007     0.11701906    -2.14895377
 H                     0.23620238     0.12469856     2.14254583
    12
 geometry
 C                    -0.06786744     0.67654245    -1.26550928
 C                     0.34835407    -0.06005427     0.00000000
 O                    -0.25628388    -1.33941562     0.00000000
 C                    -0.06786744     0.67654245     1.26550928
 H                     0.37105265     1.66909128    -1.30480912
 H                    -1.14792187     0.77590465    -1.29959674
 H                    -1.14792187     0.77590465     1.29959674
 H                     0.37105265     1.66909128     1.30480912
 H                     1.43082430    -0.17049475     0.00000000
 H                     0.40457996    -2.01442405     0.00000000
 H                     0.24644504     0.12603414    -2.14574980
 H                     0.24644504     0.12603414     2.14574980
    12
 geometry
 C                    -0.06844866     0.67860926    -1.26118999
 C                     0.36088902    -0.05313683     0.00282876
 O                    -0.22187853    -1.34283434     0.00078984
 C                    -0.06740023     0.67408008     1.26982857
 H                     0.35348774     1.67873166    -1.29889552
 H                    -1.15021579     0.75956916    -1.29465225
 H                    -1.14913911     0.75491799     1.30454123
 H                     0.35456874     1.67406183     1.31072272
 H                     1.44524721    -0.14507272     0.00218273
 H                     0.45052443    -2.00654545    -0.00069182
 H                     0.25491001     0.13504921    -2.14254583
 H                     0.25668770     0.12736971     2.14895377
    12
 geometry
 C                    -0.06902989     0.68067607    -1.25687071
 C                     0.37342398    -0.04621940     0.00565751
 O                    -0.18747317    -1.34625305     0.00157969
 C                    -0.06693301     0.67161772     1.27414785
 H                     0.33592284     1.68837204    -1.29298191
 H                    -1.15250971     0.74323368    -1.28970776
 H                    -1.15035635     0.73393134     1.30948572
 H                     0.33808483     1.67903238     1.31663633
 H                     1.45967012    -0.11965069     0.00436546
 H                     0.49646891    -1.99866684    -0.00138363
 H                     0.26337497     0.14406429    -2.13934186
 H                     0.26693036     0.12870529     2.15215774
    12
 geometry
 C                    -0.06961111     0.68274288    -1.25255142
 C                     0.38595893    -0.03930196     0.00848627
 O                    -0.15306782    -1.34967176     0.00236953
 C                    -0.06646580     0.66915536     1.27846714
 H                     0.31835793     1.69801242    -1.28706831
 H                    -1.15480363     0.72689820    -1.28476328
 H                    -1.15157359     0.71294468     1.31443020
 H                     0.32160092     1.68400294     1.32254993
 H                     1.47409303    -0.09422866     0.00654818
 H                     0.54241338    -1.99078823    -0.00207545
 H                     0.27183994     0.15307937    -2.13613789
 H                     0.27717302     0.13004087     2.15536171
    12
 geometry
 C                    -0.07019234     0.68480969    -1.24823214
 C                     0.39849388    -0.03238452     0.01131502
 O                    -0.11866246    -1.35309048     0.00315937
 C                    -0.06599858     0.66669299     1.28278642
 H                     0.30079302     1.70765280    -1.28115471
 H                    -1.15709755     0.71056272    -1.27981879
 H                    -1.15279083     0.69195803     1.31937469
 H                     0.30511701     1.68897349     1.32846353
 H                     1.48851594    -0.06880663     0.00873091
 H                     0.58835786    -1.98290962    -0.00276727
 H                     0.28030491     0.16209444    -2.13293392
 H                     0.28741568     0.13137645     2.15856568
    12
 geometry
 C                    -0.07077356     0.68687651    -1.24391285
 C                     0.41102884    -0.02546708     0.01414378
 O                    -0.08425711    -1.35650919     0.00394921
 C                    -0.06553137     0.66423063     1.28710571
 H                     0.28322811     1.71729318    -1.27524111
 H                    -1.15939147     0.69422723    -1.27487430
 H                    -1.15400807     0.67097137     1.32431918
 H                     0.28863310     1.69394404     1.33437713
 H                     1.50293885    -0.04338460     0.01091364
 H                     0.63430233    -1.97503101    -0.00345908
 H                     0.28876988     0.17110952    -2.12972995
 H                     0.29765834     0.13271202     2.16176965
    12
 geometry
 C                    -0.07019234     0.68480969    -1.24823214
 C                     0.39849388    -0.03238452     0.01131502
 O                    -0.11866246    -1.35309048     0.00315937
 C                    -0.06599858     0.66669299     1.28278642
 H                     0.30079302     1.70765280    -1.28115471
 H                    -1.15709755     0.71056272    -1.27981879
 H                    -1.15279083     0.69195803     1.31937469
 H                     0.30511701     1.68897349     1.32846353
 H                     1.48851594    -0.06880663     0.00873091
 H                     0.58835786    -1.98290962    -0.00276727
 H                     0.28030491     0.16209444    -2.13293392
 H                     0.28741568     0.13137645     2.15856568
    12
 geometry
 C                    -0.06961111     0.68274288    -1.25255142
 C                     0.38595893    -0.03930196     0.00848627
 O                    -0.15306782    -1.34967176     0.00236953
 C                    -0.06646580     0.66915536     1.27846714
 H                     0.31835793     1.69801242    -1.28706831
 H                    -1.15480363     0.72689820    -1.28476328
 H                    -1.15157359     0.71294468     1.31443020
 H                     0.32160092     1.68400294     1.32254993
 H                     1.47409303    -0.09422866     0.00654818
 H                     0.54241338    -1.99078823    -0.00207545
 H                     0.27183994     0.15307937    -2.13613789
 H                     0.27717302     0.13004087     2.15536171
    12
 geometry
 C                    -0.06902989     0.68067607    -1.25687071
 C                     0.37342398    -0.04621940     0.00565751
 O                    -0.18747317    -1.34625305     0.00157969
 C                    -0.06693301     0.67161772     1.27414785
 H                     0.33592284     1.68837204    -1.29298191
 H                    -1.15250971     0.74323368    -1.28970776
 H                    -1.15035635     0.73393134     1.30948572
 H                     0.33808483     1.67903238     1.31663633
 H                     1.45967012    -0.11965069     0.00436546
 H                     0.49646891    -1.99866684    -0.00138363
 H                     0.26337497     0.14406429    -2.13934186
 H                     0.26693036     0.12870529     2.15215774
    12
 geometry
 C                    -0.06844866     0.67860926    -1.26118999
 C                     0.36088902    -0.05313683     0.00282876
 O                    -0.22187853    -1.34283434     0.00078984
 C                    -0.06740023     0.67408008     1.26982857
 H                     0.35348774     1.67873166    -1.29889552
 H                    -1.15021579     0.75956916    -1.29465225
 H                    -1.14913911     0.75491799     1.30454123
 H                     0.35456874     1.67406183     1.31072272
 H                     1.44524721    -0.14507272     0.00218273
 H                     0.45052443    -2.00654545    -0.00069182
 H                     0.25491001     0.13504921    -2.14254583
 H                     0.25668770     0.12736971     2.14895377
