    12
 geometry
 C                    -0.06786744     0.67654245    -1.26550928
 C                     0.34835407    -0.06005427     0.00000000
 O                    -0.25628388    -1.33941562     0.00000000
 C                    -0.06786744     0.67654245     1.26550928
 H                     0.37105265     1.66909128    -1.30480912
 H                    -1.14792187     0.77590465    -1.29959674
 H                    -1.14792187     0.77590465     1.29959674
 H                     0.37105265     1.66909128     1.30480912
 H                     1.43082430    -0.17049475     0.00000000
 H                     0.40457996    -2.01442405     0.00000000
 H                     0.24644504     0.12603414    -2.14574980
 H                     0.24644504     0.12603414     2.14574980
    12
 geometry
 C                    -0.06950602     0.67210435    -1.26771658
 C                     0.34803650    -0.06021377    -0.00000000
 O                    -0.25626034    -1.33935376     0.00000000
 C                    -0.06950594     0.67210441     1.26771658
 H                     0.38804965     1.70707444    -1.30644808
 H                    -1.13452731     0.77384016    -1.29968142
 H                    -1.13452800     0.77384023     1.29968143
 H                     0.38804931     1.70707366     1.30644806
 H                     1.43370952    -0.17066685    -0.00000000
 H                     0.40463689    -2.01435721    -0.00000001
 H                     0.23579657     0.14347038    -2.11775929
 H                     0.23579661     0.14347033     2.11775936
    12
 geometry
 C                    -0.07114460     0.66766625    -1.26992388
 C                     0.34771894    -0.06037326    -0.00000000
 O                    -0.25623681    -1.33929189     0.00000001
 C                    -0.07114444     0.66766637     1.26992387
 H                     0.40504664     1.74505760    -1.30808705
 H                    -1.12113275     0.77177567    -1.29976610
 H                    -1.12113414     0.77177581     1.29976611
 H                     0.40504596     1.74505604     1.30808700
 H                     1.43659475    -0.17083894    -0.00000000
 H                     0.40469382    -2.01429036    -0.00000002
 H                     0.22514810     0.16090663    -2.08976878
 H                     0.22514818     0.16090653     2.08976892
    12
 geometry
 C                    -0.07278319     0.66322815    -1.27213118
 C                     0.34740137    -0.06053275    -0.00000000
 O                    -0.25621327    -1.33923002     0.00000001
 C                    -0.07278294     0.66322833     1.27213117
 H                     0.42204364     1.78304077    -1.30972601
 H                    -1.10773818     0.76971118    -1.29985078
 H                    -1.10774027     0.76971139     1.29985080
 H                     0.42204262     1.78303842     1.30972593
 H                     1.43947997    -0.17101103    -0.00000000
 H                     0.40475076    -2.01422352    -0.00000003
 H                     0.21449963     0.17834288    -2.06177827
 H                     0.21449976     0.17834272     2.06177847
    12
 geometry
 C                    -0.07442177     0.65879005    -1.27433849
 C                     0.34708380    -0.06069225    -0.00000001
 O                    -0.25618973    -1.33916816     0.00000001
 C                    -0.07442144     0.65879029     1.27433846
 H                     0.43904063     1.82102393    -1.31136498
 H                    -1.09434362     0.76764670    -1.29993546
 H                    -1.09434640     0.76764697     1.29993549
 H                     0.43903928     1.82102081     1.31136487
 H                     1.44236519    -0.17118313    -0.00000000
 H                     0.40480769    -2.01415667    -0.00000004
 H                     0.20385116     0.19577913    -2.03378775
 H                     0.20385133     0.19577892     2.03378803
    12
 geometry
 C                    -0.07606035     0.65435195    -1.27654579
 C                     0.34676624    -0.06085174    -0.00000001
 O                    -0.25616620    -1.33910629     0.00000001
 C                    -0.07605994     0.65435226     1.27654576
 H                     0.45603763     1.85900709    -1.31300394
 H                    -1.08094906     0.76558221    -1.30002014
 H                    -1.08095253     0.76558255     1.30002018
 H                     0.45603594     1.85900319     1.31300381
 H                     1.44525042    -0.17135522    -0.00000001
 H                     0.40486462    -2.01408983    -0.00000004
 H                     0.19320268     0.21321538    -2.00579724
 H                     0.19320290     0.21321512     2.00579759
    12
 geometry
 C                    -0.07442177     0.65879005    -1.27433849
 C                     0.34708380    -0.06069225    -0.00000001
 O                    -0.25618973    -1.33916816     0.00000001
 C                    -0.07442144     0.65879029     1.27433846
 H                     0.43904063     1.82102393    -1.31136498
 H                    -1.09434362     0.76764670    -1.29993546
 H                    -1.09434640     0.76764697     1.29993549
 H                     0.43903928     1.82102081     1.31136487
 H                     1.44236519    -0.17118313    -0.00000000
 H                     0.40480769    -2.01415667    -0.00000004
 H                     0.20385116     0.19577913    -2.03378775
 H                     0.20385133     0.19577892     2.03378803
    12
 geometry
 C                    -0.07278319     0.66322815    -1.27213118
 C                     0.34740137    -0.06053275    -0.00000000
 O                    -0.25621327    -1.33923002     0.00000001
 C                    -0.07278294     0.66322833     1.27213117
 H                     0.42204364     1.78304077    -1.30972601
 H                    -1.10773818     0.76971118    -1.29985078
 H                    -1.10774027     0.76971139     1.29985080
 H                     0.42204262     1.78303842     1.30972593
 H                     1.43947997    -0.17101103    -0.00000000
 H                     0.40475076    -2.01422352    -0.00000003
 H                     0.21449963     0.17834288    -2.06177827
 H                     0.21449976     0.17834272     2.06177847
    12
 geometry
 C                    -0.07114460     0.66766625    -1.26992388
 C                     0.34771894    -0.06037326    -0.00000000
 O                    -0.25623681    -1.33929189     0.00000001
 C                    -0.07114444     0.66766637     1.26992387
 H                     0.40504664     1.74505760    -1.30808705
 H                    -1.12113275     0.77177567    -1.29976610
 H                    -1.12113414     0.77177581     1.29976611
 H                     0.40504596     1.74505604     1.30808700
 H                     1.43659475    -0.17083894    -0.00000000
 H                     0.40469382    -2.01429036    -0.00000002
 H                     0.22514810     0.16090663    -2.08976878
 H                     0.22514818     0.16090653     2.08976892
    12
 geometry
 C                    -0.06950602     0.67210435    -1.26771658
 C                     0.34803650    -0.06021377    -0.00000000
 O                    -0.25626034    -1.33935376     0.00000000
 C                    -0.06950594     0.67210441     1.26771658
 H                     0.38804965     1.70707444    -1.30644808
 H                    -1.13452731     0.77384016    -1.29968142
 H                    -1.13452800     0.77384023     1.29968143
 H                     0.38804931     1.70707366     1.30644806
 H                     1.43370952    -0.17066685    -0.00000000
 H                     0.40463689    -2.01435721    -0.00000001
 H                     0.23579657     0.14347038    -2.11775929
 H                     0.23579661     0.14347033     2.11775936
    12
 geometry
 C                    -0.06786744     0.67654245    -1.26550928
 C                     0.34835407    -0.06005427     0.00000000
 O                    -0.25628388    -1.33941562     0.00000000
 C                    -0.06786744     0.67654245     1.26550928
 H                     0.37105265     1.66909128    -1.30480912
 H                    -1.14792187     0.77590465    -1.29959674
 H                    -1.14792187     0.77590465     1.29959674
 H                     0.37105265     1.66909128     1.30480912
 H                     1.43082430    -0.17049475     0.00000000
 H                     0.40457996    -2.01442405     0.00000000
 H                     0.24644504     0.12603414    -2.14574980
 H                     0.24644504     0.12603414     2.14574980
    12
 geometry
 C                    -0.06622886     0.68098055    -1.26330198
 C                     0.34867164    -0.05989478     0.00000000
 O                    -0.25630742    -1.33947749    -0.00000000
 C                    -0.06622894     0.68098048     1.26330198
 H                     0.35405565     1.63110811    -1.30317016
 H                    -1.16131643     0.77796913    -1.29951206
 H                    -1.16131574     0.77796906     1.29951205
 H                     0.35405599     1.63110889     1.30317018
 H                     1.42793908    -0.17032266     0.00000000
 H                     0.40452303    -2.01449090     0.00000001
 H                     0.25709351     0.10859789    -2.17374031
 H                     0.25709347     0.10859794     2.17374024
    12
 geometry
 C                    -0.06459028     0.68541865    -1.26109468
 C                     0.34898920    -0.05973529     0.00000000
 O                    -0.25633095    -1.33953936    -0.00000001
 C                    -0.06459044     0.68541852     1.26109469
 H                     0.33705866     1.59312495    -1.30153119
 H                    -1.17471099     0.78003362    -1.29942738
 H                    -1.17470960     0.78003348     1.29942737
 H                     0.33705934     1.59312651     1.30153124
 H                     1.42505385    -0.17015057     0.00000000
 H                     0.40446610    -2.01455775     0.00000002
 H                     0.26774198     0.09116164    -2.20173082
 H                     0.26774190     0.09116174     2.20173068
    12
 geometry
 C                    -0.06295169     0.68985675    -1.25888738
 C                     0.34930677    -0.05957580     0.00000000
 O                    -0.25635449    -1.33960123    -0.00000001
 C                    -0.06295194     0.68985656     1.25888739
 H                     0.32006166     1.55514178    -1.29989223
 H                    -1.18810556     0.78209811    -1.29934270
 H                    -1.18810347     0.78209790     1.29934268
 H                     0.32006268     1.55514413     1.29989231
 H                     1.42216863    -0.16997847     0.00000000
 H                     0.40440916    -2.01462459     0.00000003
 H                     0.27839045     0.07372539    -2.22972133
 H                     0.27839032     0.07372555     2.22972113
    12
 geometry
 C                    -0.06131311     0.69429485    -1.25668007
 C                     0.34962434    -0.05941630     0.00000001
 O                    -0.25637803    -1.33966309    -0.00000001
 C                    -0.06131344     0.69429460     1.25668010
 H                     0.30306467     1.51715862    -1.29825326
 H                    -1.20150012     0.78416259    -1.29925802
 H                    -1.20149734     0.78416232     1.29925799
 H                     0.30306602     1.51716174     1.29825337
 H                     1.41928341    -0.16980638     0.00000000
 H                     0.40435223    -2.01469144     0.00000004
 H                     0.28903892     0.05628914    -2.25771185
 H                     0.28903875     0.05628935     2.25771157
    12
 geometry
 C                    -0.05967453     0.69873295    -1.25447277
 C                     0.34994190    -0.05925681     0.00000001
 O                    -0.25640156    -1.33972496    -0.00000001
 C                    -0.05967494     0.69873264     1.25447280
 H                     0.28606767     1.47917546    -1.29661430
 H                    -1.21489468     0.78622708    -1.29917334
 H                    -1.21489121     0.78622674     1.29917330
 H                     0.28606936     1.47917936     1.29661443
 H                     1.41639818    -0.16963429     0.00000001
 H                     0.40429530    -2.01475828     0.00000004
 H                     0.29968740     0.03885289    -2.28570236
 H                     0.29968718     0.03885316     2.28570201
    12
 geometry
 C                    -0.06131311     0.69429485    -1.25668007
 C                     0.34962434    -0.05941630     0.00000001
 O                    -0.25637803    -1.33966309    -0.00000001
 C                    -0.06131344     0.69429460     1.25668010
 H                     0.30306467     1.51715862    -1.29825326
 H                    -1.20150012     0.78416259    -1.29925802
 H                    -1.20149734     0.78416232     1.29925799
 H                     0.30306602     1.51716174     1.29825337
 H                     1.41928341    -0.16980638     0.00000000
 H                     0.40435223    -2.01469144     0.00000004
 H                     0.28903892     0.05628914    -2.25771185
 H                     0.28903875     0.05628935     2.25771157
    12
 geometry
 C                    -0.06295169     0.68985675    -1.25888738
 C                     0.34930677    -0.05957580     0.00000000
 O                    -0.25635449    -1.33960123    -0.00000001
 C                    -0.06295194     0.68985656     1.25888739
 H                     0.32006166     1.55514178    -1.29989223
 H                    -1.18810556     0.78209811    -1.29934270
 H                    -1.18810347     0.78209790     1.29934268
 H                     0.32006268     1.55514413     1.29989231
 H                     1.42216863    -0.16997847     0.00000000
 H                     0.40440916    -2.01462459     0.00000003
 H                     0.27839045     0.07372539    -2.22972133
 H                     0.27839032     0.07372555     2.22972113
    12
 geometry
 C                    -0.06459028     0.68541865    -1.26109468
 C                     0.34898920    -0.05973529     0.00000000
 O                    -0.25633095    -1.33953936    -0.00000001
 C                    -0.06459044     0.68541852     1.26109469
 H                     0.33705866     1.59312495    -1.30153119
 H                    -1.17471099     0.78003362    -1.29942738
 H                    -1.17470960     0.78003348     1.29942737
 H                     0.33705934     1.59312651     1.30153124
 H                     1.42505385    -0.17015057     0.00000000
 H                     0.40446610    -2.01455775     0.00000002
 H                     0.26774198     0.09116164    -2.20173082
 H                     0.26774190     0.09116174     2.20173068
    12
 geometry
 C                    -0.06622886     0.68098055    -1.26330198
 C                     0.34867164    -0.05989478     0.00000000
 O                    -0.25630742    -1.33947749    -0.00000000
 C                    -0.06622894     0.68098048     1.26330198
 H                     0.35405565     1.63110811    -1.30317016
 H                    -1.16131643     0.77796913    -1.29951206
 H                    -1.16131574     0.77796906     1.29951205
 H                     0.35405599     1.63110889     1.30317018
 H                     1.42793908    -0.17032266     0.00000000
 H                     0.40452303    -2.01449090     0.00000001
 H                     0.25709351     0.10859789    -2.17374031
 H                     0.25709347     0.10859794     2.17374024
