    12
 geometry
 C                    -0.06786744     0.67654245    -1.26550928
 C                     0.34835407    -0.06005427     0.00000000
 O                    -0.25628388    -1.33941562     0.00000000
 C                    -0.06786744     0.67654245     1.26550928
 H                     0.37105265     1.66909128    -1.30480912
 H                    -1.14792187     0.77590465    -1.29959674
 H                    -1.14792187     0.77590465     1.29959674
 H                     0.37105265     1.66909128     1.30480912
 H                     1.43082430    -0.17049475     0.00000000
 H                     0.40457996    -2.01442405     0.00000000
 H                     0.24644504     0.12603414    -2.14574980
 H                     0.24644504     0.12603414     2.14574980
    12
 geometry
 C                    -0.06320202     0.67578218    -1.26756611
 C                     0.34960266    -0.06024554    -0.00000000
 O                    -0.25634045    -1.33939370     0.00000000
 C                    -0.06320198     0.67578222     1.26756610
 H                     0.36695827     1.65800925    -1.30474707
 H                    -1.19124740     0.77964821    -1.30115777
 H                    -1.19124773     0.77964825     1.30115777
 H                     0.36695808     1.65800883     1.30474706
 H                     1.41773988    -0.16873561     0.00000000
 H                     0.40480099    -2.01439350     0.00000000
 H                     0.23776189     0.14249474    -2.12013190
 H                     0.23776193     0.14249468     2.12013199
    12
 geometry
 C                    -0.05853661     0.67502192    -1.26962294
 C                     0.35085125    -0.06043681    -0.00000000
 O                    -0.25639703    -1.33937177     0.00000000
 C                    -0.05853653     0.67502199     1.26962293
 H                     0.36286389     1.64692722    -1.30468502
 H                    -1.23457294     0.78339178    -1.30271880
 H                    -1.23457360     0.78339186     1.30271881
 H                     0.36286352     1.64692639     1.30468500
 H                     1.40465546    -0.16697646     0.00000001
 H                     0.40502202    -2.01436294     0.00000000
 H                     0.22907874     0.15895534    -2.09451401
 H                     0.22907882     0.15895523     2.09451419
    12
 geometry
 C                    -0.05387119     0.67426166    -1.27167978
 C                     0.35209984    -0.06062808    -0.00000000
 O                    -0.25645360    -1.33934984     0.00000000
 C                    -0.05387107     0.67426177     1.27167975
 H                     0.35876951     1.63584519    -1.30462297
 H                    -1.27789847     0.78713535    -1.30427983
 H                    -1.27789946     0.78713546     1.30427984
 H                     0.35876895     1.63584395     1.30462294
 H                     1.39157103    -0.16521731     0.00000001
 H                     0.40524304    -2.01433239     0.00000000
 H                     0.22039558     0.17541594    -2.06889611
 H                     0.22039571     0.17541578     2.06889638
    12
 geometry
 C                    -0.04920577     0.67350140    -1.27373661
 C                     0.35334843    -0.06081934    -0.00000001
 O                    -0.25651017    -1.33932791     0.00000000
 C                    -0.04920561     0.67350154     1.27373658
 H                     0.35467513     1.62476316    -1.30456092
 H                    -1.32122401     0.79087892    -1.30584086
 H                    -1.32122533     0.79087907     1.30584088
 H                     0.35467438     1.62476151     1.30456088
 H                     1.37848661    -0.16345816     0.00000001
 H                     0.40546407    -2.01430183     0.00000000
 H                     0.21171243     0.19187655    -2.04327821
 H                     0.21171260     0.19187633     2.04327857
    12
 geometry
 C                    -0.04454036     0.67274114    -1.27579344
 C                     0.35459702    -0.06101061    -0.00000001
 O                    -0.25656675    -1.33930599     0.00000000
 C                    -0.04454016     0.67274132     1.27579340
 H                     0.35058076     1.61368113    -1.30449887
 H                    -1.36454954     0.79462249    -1.30740189
 H                    -1.36455119     0.79462267     1.30740191
 H                     0.35057981     1.61367907     1.30449882
 H                     1.36540219    -0.16169901     0.00000001
 H                     0.40568510    -2.01427128     0.00000000
 H                     0.20302928     0.20833715    -2.01766032
 H                     0.20302948     0.20833688     2.01766077
    12
 geometry
 C                    -0.04920577     0.67350140    -1.27373661
 C                     0.35334843    -0.06081934    -0.00000001
 O                    -0.25651017    -1.33932791     0.00000000
 C                    -0.04920561     0.67350154     1.27373658
 H                     0.35467513     1.62476316    -1.30456092
 H                    -1.32122401     0.79087892    -1.30584086
 H                    -1.32122533     0.79087907     1.30584088
 H                     0.35467438     1.62476151     1.30456088
 H                     1.37848661    -0.16345816     0.00000001
 H                     0.40546407    -2.01430183     0.00000000
 H                     0.21171243     0.19187655    -2.04327821
 H                     0.21171260     0.19187633     2.04327857
    12
 geometry
 C                    -0.05387119     0.67426166    -1.27167978
 C                     0.35209984    -0.06062808    -0.00000000
 O                    -0.25645360    -1.33934984     0.00000000
 C                    -0.05387107     0.67426177     1.27167975
 H                     0.35876951     1.63584519    -1.30462297
 H                    -1.27789847     0.78713535    -1.30427983
 H                    -1.27789946     0.78713546     1.30427984
 H                     0.35876895     1.63584395     1.30462294
 H                     1.39157103    -0.16521731     0.00000001
 H                     0.40524304    -2.01433239     0.00000000
 H                     0.22039558     0.17541594    -2.06889611
 H                     0.22039571     0.17541578     2.06889638
    12
 geometry
 C                    -0.05853661     0.67502192    -1.26962294
 C                     0.35085125    -0.06043681    -0.00000000
 O                    -0.25639703    -1.33937177     0.00000000
 C                    -0.05853653     0.67502199     1.26962293
 H                     0.36286389     1.64692722    -1.30468502
 H                    -1.23457294     0.78339178    -1.30271880
 H                    -1.23457360     0.78339186     1.30271881
 H                     0.36286352     1.64692639     1.30468500
 H                     1.40465546    -0.16697646     0.00000001
 H                     0.40502202    -2.01436294     0.00000000
 H                     0.22907874     0.15895534    -2.09451401
 H                     0.22907882     0.15895523     2.09451419
    12
 geometry
 C                    -0.06320202     0.67578218    -1.26756611
 C                     0.34960266    -0.06024554    -0.00000000
 O                    -0.25634045    -1.33939370     0.00000000
 C                    -0.06320198     0.67578222     1.26756610
 H                     0.36695827     1.65800925    -1.30474707
 H                    -1.19124740     0.77964821    -1.30115777
 H                    -1.19124773     0.77964825     1.30115777
 H                     0.36695808     1.65800883     1.30474706
 H                     1.41773988    -0.16873561     0.00000000
 H                     0.40480099    -2.01439350     0.00000000
 H                     0.23776189     0.14249474    -2.12013190
 H                     0.23776193     0.14249468     2.12013199
    12
 geometry
 C                    -0.06786744     0.67654245    -1.26550928
 C                     0.34835407    -0.06005427     0.00000000
 O                    -0.25628388    -1.33941562     0.00000000
 C                    -0.06786744     0.67654245     1.26550928
 H                     0.37105265     1.66909128    -1.30480912
 H                    -1.14792187     0.77590465    -1.29959674
 H                    -1.14792187     0.77590465     1.29959674
 H                     0.37105265     1.66909128     1.30480912
 H                     1.43082430    -0.17049475     0.00000000
 H                     0.40457996    -2.01442405     0.00000000
 H                     0.24644504     0.12603414    -2.14574980
 H                     0.24644504     0.12603414     2.14574980
    12
 geometry
 C                    -0.07253286     0.67730271    -1.26345245
 C                     0.34710548    -0.05986301     0.00000000
 O                    -0.25622731    -1.33943755    -0.00000000
 C                    -0.07253290     0.67730267     1.26345246
 H                     0.37514703     1.68017330    -1.30487117
 H                    -1.10459634     0.77216108    -1.29803571
 H                    -1.10459601     0.77216104     1.29803571
 H                     0.37514722     1.68017372     1.30487118
 H                     1.44390872    -0.17225390    -0.00000000
 H                     0.40435893    -2.01445461    -0.00000000
 H                     0.25512819     0.10957353    -2.17136770
 H                     0.25512815     0.10957359     2.17136761
    12
 geometry
 C                    -0.07719827     0.67806297    -1.26139562
 C                     0.34585689    -0.05967174     0.00000000
 O                    -0.25617073    -1.33945948    -0.00000000
 C                    -0.07719835     0.67806290     1.26139563
 H                     0.37924141     1.69125533    -1.30493322
 H                    -1.06127080     0.76841751    -1.29647468
 H                    -1.06127014     0.76841744     1.29647467
 H                     0.37924178     1.69125616     1.30493324
 H                     1.45699314    -0.17401305    -0.00000001
 H                     0.40413790    -2.01448517    -0.00000000
 H                     0.26381134     0.09311293    -2.19698559
 H                     0.26381126     0.09311304     2.19698541
    12
 geometry
 C                    -0.08186369     0.67882323    -1.25933878
 C                     0.34460830    -0.05948047     0.00000000
 O                    -0.25611416    -1.33948141    -0.00000000
 C                    -0.08186381     0.67882312     1.25933881
 H                     0.38333579     1.70233736    -1.30499527
 H                    -1.01794527     0.76467394    -1.29491365
 H                    -1.01794428     0.76467383     1.29491364
 H                     0.38333635     1.70233860     1.30499530
 H                     1.47007757    -0.17577220    -0.00000001
 H                     0.40391688    -2.01451572    -0.00000000
 H                     0.27249450     0.07665233    -2.22260349
 H                     0.27249437     0.07665249     2.22260322
    12
 geometry
 C                    -0.08652911     0.67958349    -1.25728195
 C                     0.34335971    -0.05928920     0.00000001
 O                    -0.25605759    -1.33950334    -0.00000000
 C                    -0.08652927     0.67958335     1.25728198
 H                     0.38743017     1.71341939    -1.30505732
 H                    -0.97461973     0.76093037    -1.29335262
 H                    -0.97461841     0.76093022     1.29335260
 H                     0.38743092     1.71342104     1.30505736
 H                     1.48316199    -0.17753135    -0.00000001
 H                     0.40369585    -2.01454628    -0.00000000
 H                     0.28117765     0.06019173    -2.24822139
 H                     0.28117748     0.06019194     2.24822103
    12
 geometry
 C                    -0.09119452     0.68034375    -1.25522512
 C                     0.34211112    -0.05909794     0.00000001
 O                    -0.25600101    -1.33952526    -0.00000000
 C                    -0.09119472     0.68034358     1.25522516
 H                     0.39152454     1.72450142    -1.30511937
 H                    -0.93129420     0.75718680    -1.29179159
 H                    -0.93129255     0.75718662     1.29179157
 H                     0.39152549     1.72450349     1.30511942
 H                     1.49624641    -0.17929050    -0.00000001
 H                     0.40347482    -2.01457683    -0.00000000
 H                     0.28986080     0.04373112    -2.27383928
 H                     0.28986060     0.04373139     2.27383883
    12
 geometry
 C                    -0.08652911     0.67958349    -1.25728195
 C                     0.34335971    -0.05928920     0.00000001
 O                    -0.25605759    -1.33950334    -0.00000000
 C                    -0.08652927     0.67958335     1.25728198
 H                     0.38743017     1.71341939    -1.30505732
 H                    -0.97461973     0.76093037    -1.29335262
 H                    -0.97461841     0.76093022     1.29335260
 H                     0.38743092     1.71342104     1.30505736
 H                     1.48316199    -0.17753135    -0.00000001
 H                     0.40369585    -2.01454628    -0.00000000
 H                     0.28117765     0.06019173    -2.24822139
 H                     0.28117748     0.06019194     2.24822103
    12
 geometry
 C                    -0.08186369     0.67882323    -1.25933878
 C                     0.34460830    -0.05948047     0.00000000
 O                    -0.25611416    -1.33948141    -0.00000000
 C                    -0.08186381     0.67882312     1.25933881
 H                     0.38333579     1.70233736    -1.30499527
 H                    -1.01794527     0.76467394    -1.29491365
 H                    -1.01794428     0.76467383     1.29491364
 H                     0.38333635     1.70233860     1.30499530
 H                     1.47007757    -0.17577220    -0.00000001
 H                     0.40391688    -2.01451572    -0.00000000
 H                     0.27249450     0.07665233    -2.22260349
 H                     0.27249437     0.07665249     2.22260322
    12
 geometry
 C                    -0.07719827     0.67806297    -1.26139562
 C                     0.34585689    -0.05967174     0.00000000
 O                    -0.25617073    -1.33945948    -0.00000000
 C                    -0.07719835     0.67806290     1.26139563
 H                     0.37924141     1.69125533    -1.30493322
 H                    -1.06127080     0.76841751    -1.29647468
 H                    -1.06127014     0.76841744     1.29647467
 H                     0.37924178     1.69125616     1.30493324
 H                     1.45699314    -0.17401305    -0.00000001
 H                     0.40413790    -2.01448517    -0.00000000
 H                     0.26381134     0.09311293    -2.19698559
 H                     0.26381126     0.09311304     2.19698541
    12
 geometry
 C                    -0.07253286     0.67730271    -1.26345245
 C                     0.34710548    -0.05986301     0.00000000
 O                    -0.25622731    -1.33943755    -0.00000000
 C                    -0.07253290     0.67730267     1.26345246
 H                     0.37514703     1.68017330    -1.30487117
 H                    -1.10459634     0.77216108    -1.29803571
 H                    -1.10459601     0.77216104     1.29803571
 H                     0.37514722     1.68017372     1.30487118
 H                     1.44390872    -0.17225390    -0.00000000
 H                     0.40435893    -2.01445461    -0.00000000
 H                     0.25512819     0.10957353    -2.17136770
 H                     0.25512815     0.10957359     2.17136761
