    12
 geometry
 C                    -0.06786744     0.67654245    -1.26550928
 C                     0.34835407    -0.06005427     0.00000000
 O                    -0.25628388    -1.33941562     0.00000000
 C                    -0.06786744     0.67654245     1.26550928
 H                     0.37105265     1.66909128    -1.30480912
 H                    -1.14792187     0.77590465    -1.29959674
 H                    -1.14792187     0.77590465     1.29959674
 H                     0.37105265     1.66909128     1.30480912
 H                     1.43082430    -0.17049475     0.00000000
 H                     0.40457996    -2.01442405     0.00000000
 H                     0.24644504     0.12603414    -2.14574980
 H                     0.24644504     0.12603414     2.14574980
    12
 geometry
 C                    -0.06939801     0.66423763    -1.25809547
 C                     0.34835410    -0.06005436     0.01064202
 O                    -0.25628388    -1.33941569    -0.01997562
 C                    -0.06633689     0.68884736     1.27292287
 H                     0.36499722     1.65779852    -1.31888907
 H                    -1.15024341     0.75679581    -1.28737690
 H                    -1.14560034     0.79501368     1.31181622
 H                     0.37710794     1.68038424     1.29072840
 H                     1.43082433    -0.17049482     0.01685966
 H                     0.40457995    -2.01442412    -0.03211264
 H                     0.24035325     0.09704650    -2.12937900
 H                     0.25253681     0.15502249     2.16212074
    12
 geometry
 C                    -0.07092857     0.65193281    -1.25068165
 C                     0.34835413    -0.06005445     0.02128405
 O                    -0.25628389    -1.33941576    -0.03995125
 C                    -0.06480633     0.70115227     1.28033646
 H                     0.35894179     1.64650576    -1.33296902
 H                    -1.15256495     0.73768697    -1.27515706
 H                    -1.14327882     0.81412271     1.32403570
 H                     0.38316322     1.69167720     1.27664769
 H                     1.43082436    -0.17049488     0.03371933
 H                     0.40457993    -2.01442419    -0.06422527
 H                     0.23426146     0.06805886    -2.11300821
 H                     0.25862858     0.18401085     2.17849168
    12
 geometry
 C                    -0.07245914     0.63962799    -1.24326784
 C                     0.34835416    -0.06005454     0.03192607
 O                    -0.25628389    -1.33941582    -0.05992687
 C                    -0.06327578     0.71345718     1.28775005
 H                     0.35288636     1.63521299    -1.34704898
 H                    -1.15488649     0.71857814    -1.26293721
 H                    -1.14095729     0.83323175     1.33625518
 H                     0.38921851     1.70297017     1.26256697
 H                     1.43082438    -0.17049494     0.05057899
 H                     0.40457992    -2.01442426    -0.09633791
 H                     0.22816967     0.03907122    -2.09663741
 H                     0.26472036     0.21299921     2.19486262
    12
 geometry
 C                    -0.07398970     0.62732318    -1.23585402
 C                     0.34835419    -0.06005463     0.04256809
 O                    -0.25628390    -1.33941589    -0.07990249
 C                    -0.06174522     0.72576209     1.29516364
 H                     0.34683092     1.62392023    -1.36112893
 H                    -1.15720803     0.69946930    -1.25071737
 H                    -1.13863577     0.85234078     1.34847465
 H                     0.39527379     1.71426313     1.24848625
 H                     1.43082441    -0.17049501     0.06743865
 H                     0.40457990    -2.01442433    -0.12845054
 H                     0.22207788     0.01008358    -2.08026661
 H                     0.27081213     0.24198757     2.21123357
    12
 geometry
 C                    -0.07552027     0.61501836    -1.22844021
 C                     0.34835422    -0.06005471     0.05321011
 O                    -0.25628390    -1.33941596    -0.09987811
 C                    -0.06021467     0.73806700     1.30257723
 H                     0.34077549     1.61262747    -1.37520888
 H                    -1.15952956     0.68036046    -1.23849753
 H                    -1.13631424     0.87144981     1.36069413
 H                     0.40132908     1.72555609     1.23440554
 H                     1.43082444    -0.17049507     0.08429832
 H                     0.40457989    -2.01442440    -0.16056318
 H                     0.21598609    -0.01890406    -2.06389582
 H                     0.27690390     0.27097593     2.22760451
    12
 geometry
 C                    -0.07398970     0.62732318    -1.23585402
 C                     0.34835419    -0.06005463     0.04256809
 O                    -0.25628390    -1.33941589    -0.07990249
 C                    -0.06174522     0.72576209     1.29516364
 H                     0.34683092     1.62392023    -1.36112893
 H                    -1.15720803     0.69946930    -1.25071737
 H                    -1.13863577     0.85234078     1.34847465
 H                     0.39527379     1.71426313     1.24848625
 H                     1.43082441    -0.17049501     0.06743865
 H                     0.40457990    -2.01442433    -0.12845054
 H                     0.22207788     0.01008358    -2.08026661
 H                     0.27081213     0.24198757     2.21123357
    12
 geometry
 C                    -0.07245914     0.63962799    -1.24326784
 C                     0.34835416    -0.06005454     0.03192607
 O                    -0.25628389    -1.33941582    -0.05992687
 C                    -0.06327578     0.71345718     1.28775005
 H                     0.35288636     1.63521299    -1.34704898
 H                    -1.15488649     0.71857814    -1.26293721
 H                    -1.14095729     0.83323175     1.33625518
 H                     0.38921851     1.70297017     1.26256697
 H                     1.43082438    -0.17049494     0.05057899
 H                     0.40457992    -2.01442426    -0.09633791
 H                     0.22816967     0.03907122    -2.09663741
 H                     0.26472036     0.21299921     2.19486262
    12
 geometry
 C                    -0.07092857     0.65193281    -1.25068165
 C                     0.34835413    -0.06005445     0.02128405
 O                    -0.25628389    -1.33941576    -0.03995125
 C                    -0.06480633     0.70115227     1.28033646
 H                     0.35894179     1.64650576    -1.33296902
 H                    -1.15256495     0.73768697    -1.27515706
 H                    -1.14327882     0.81412271     1.32403570
 H                     0.38316322     1.69167720     1.27664769
 H                     1.43082436    -0.17049488     0.03371933
 H                     0.40457993    -2.01442419    -0.06422527
 H                     0.23426146     0.06805886    -2.11300821
 H                     0.25862858     0.18401085     2.17849168
    12
 geometry
 C                    -0.06939801     0.66423763    -1.25809547
 C                     0.34835410    -0.06005436     0.01064202
 O                    -0.25628388    -1.33941569    -0.01997562
 C                    -0.06633689     0.68884736     1.27292287
 H                     0.36499722     1.65779852    -1.31888907
 H                    -1.15024341     0.75679581    -1.28737690
 H                    -1.14560034     0.79501368     1.31181622
 H                     0.37710794     1.68038424     1.29072840
 H                     1.43082433    -0.17049482     0.01685966
 H                     0.40457995    -2.01442412    -0.03211264
 H                     0.24035325     0.09704650    -2.12937900
 H                     0.25253681     0.15502249     2.16212074
    12
 geometry
 C                    -0.06786744     0.67654245    -1.26550928
 C                     0.34835407    -0.06005427     0.00000000
 O                    -0.25628388    -1.33941562     0.00000000
 C                    -0.06786744     0.67654245     1.26550928
 H                     0.37105265     1.66909128    -1.30480912
 H                    -1.14792187     0.77590465    -1.29959674
 H                    -1.14792187     0.77590465     1.29959674
 H                     0.37105265     1.66909128     1.30480912
 H                     1.43082430    -0.17049475     0.00000000
 H                     0.40457996    -2.01442405     0.00000000
 H                     0.24644504     0.12603414    -2.14574980
 H                     0.24644504     0.12603414     2.14574980
    12
 geometry
 C                    -0.06633687     0.68884726    -1.27292309
 C                     0.34835404    -0.06005419    -0.01064202
 O                    -0.25628388    -1.33941556     0.01997562
 C                    -0.06939799     0.66423753     1.25809569
 H                     0.37710808     1.68038404    -1.29072917
 H                    -1.14560033     0.79501348    -1.31181658
 H                    -1.15024340     0.75679561     1.28737726
 H                     0.36499736     1.65779831     1.31888984
 H                     1.43082427    -0.17049469    -0.01685966
 H                     0.40457997    -2.01442399     0.03211264
 H                     0.25253683     0.15502177    -2.16212060
 H                     0.24035327     0.09704578     2.12937886
    12
 geometry
 C                    -0.06480631     0.70115208    -1.28033691
 C                     0.34835401    -0.06005410    -0.02128405
 O                    -0.25628387    -1.33941549     0.03995125
 C                    -0.07092855     0.65193262     1.25068210
 H                     0.38316351     1.69167680    -1.27664922
 H                    -1.14327879     0.81412232    -1.32403642
 H                    -1.15256492     0.73768658     1.27515778
 H                     0.35894208     1.64650535     1.33297055
 H                     1.43082424    -0.17049463    -0.03371933
 H                     0.40457999    -2.01442392     0.06422527
 H                     0.25862862     0.18400941    -2.17849139
 H                     0.23426150     0.06805742     2.11300792
    12
 geometry
 C                    -0.06327574     0.71345690    -1.28775072
 C                     0.34835398    -0.06005401    -0.03192607
 O                    -0.25628387    -1.33941542     0.05992687
 C                    -0.07245910     0.63962771     1.24326851
 H                     0.38921894     1.70296956    -1.26256926
 H                    -1.14095725     0.83323115    -1.33625627
 H                    -1.15488645     0.71857755     1.26293830
 H                     0.35288679     1.63521239     1.34705127
 H                     1.43082422    -0.17049456    -0.05057899
 H                     0.40458000    -2.01442385     0.09633791
 H                     0.26472041     0.21299705    -2.19486219
 H                     0.22816972     0.03906906     2.09663698
    12
 geometry
 C                    -0.06174518     0.72576171    -1.29516454
 C                     0.34835395    -0.06005392    -0.04256809
 O                    -0.25628386    -1.33941536     0.07990249
 C                    -0.07398966     0.62732280     1.23585492
 H                     0.39527438     1.71426232    -1.24848931
 H                    -1.13863571     0.85233999    -1.34847611
 H                    -1.15720797     0.69946851     1.25071883
 H                     0.34683151     1.62391942     1.36113199
 H                     1.43082419    -0.17049450    -0.06743865
 H                     0.40458002    -2.01442378     0.12845054
 H                     0.27081220     0.24198469    -2.21123299
 H                     0.22207795     0.01008070     2.08026603
    12
 geometry
 C                    -0.06021461     0.73806653    -1.30257835
 C                     0.34835392    -0.06005384    -0.05321011
 O                    -0.25628386    -1.33941529     0.09987811
 C                    -0.07552021     0.61501789     1.22844133
 H                     0.40132981     1.72555508    -1.23440936
 H                    -1.13631418     0.87144883    -1.36069595
 H                    -1.15952950     0.68035948     1.23849935
 H                     0.34077622     1.61262646     1.37521270
 H                     1.43082416    -0.17049444    -0.08429832
 H                     0.40458003    -2.01442371     0.16056318
 H                     0.27690399     0.27097233    -2.22760378
 H                     0.21598618    -0.01890766     2.06389509
    12
 geometry
 C                    -0.06174518     0.72576171    -1.29516454
 C                     0.34835395    -0.06005392    -0.04256809
 O                    -0.25628386    -1.33941536     0.07990249
 C                    -0.07398966     0.62732280     1.23585492
 H                     0.39527438     1.71426232    -1.24848931
 H                    -1.13863571     0.85233999    -1.34847611
 H                    -1.15720797     0.69946851     1.25071883
 H                     0.34683151     1.62391942     1.36113199
 H                     1.43082419    -0.17049450    -0.06743865
 H                     0.40458002    -2.01442378     0.12845054
 H                     0.27081220     0.24198469    -2.21123299
 H                     0.22207795     0.01008070     2.08026603
    12
 geometry
 C                    -0.06327574     0.71345690    -1.28775072
 C                     0.34835398    -0.06005401    -0.03192607
 O                    -0.25628387    -1.33941542     0.05992687
 C                    -0.07245910     0.63962771     1.24326851
 H                     0.38921894     1.70296956    -1.26256926
 H                    -1.14095725     0.83323115    -1.33625627
 H                    -1.15488645     0.71857755     1.26293830
 H                     0.35288679     1.63521239     1.34705127
 H                     1.43082422    -0.17049456    -0.05057899
 H                     0.40458000    -2.01442385     0.09633791
 H                     0.26472041     0.21299705    -2.19486219
 H                     0.22816972     0.03906906     2.09663698
    12
 geometry
 C                    -0.06480631     0.70115208    -1.28033691
 C                     0.34835401    -0.06005410    -0.02128405
 O                    -0.25628387    -1.33941549     0.03995125
 C                    -0.07092855     0.65193262     1.25068210
 H                     0.38316351     1.69167680    -1.27664922
 H                    -1.14327879     0.81412232    -1.32403642
 H                    -1.15256492     0.73768658     1.27515778
 H                     0.35894208     1.64650535     1.33297055
 H                     1.43082424    -0.17049463    -0.03371933
 H                     0.40457999    -2.01442392     0.06422527
 H                     0.25862862     0.18400941    -2.17849139
 H                     0.23426150     0.06805742     2.11300792
    12
 geometry
 C                    -0.06633687     0.68884726    -1.27292309
 C                     0.34835404    -0.06005419    -0.01064202
 O                    -0.25628388    -1.33941556     0.01997562
 C                    -0.06939799     0.66423753     1.25809569
 H                     0.37710808     1.68038404    -1.29072917
 H                    -1.14560033     0.79501348    -1.31181658
 H                    -1.15024340     0.75679561     1.28737726
 H                     0.36499736     1.65779831     1.31888984
 H                     1.43082427    -0.17049469    -0.01685966
 H                     0.40457997    -2.01442399     0.03211264
 H                     0.25253683     0.15502177    -2.16212060
 H                     0.24035327     0.09704578     2.12937886
