    12
 geometry
 C                    -0.06786744     0.67654245    -1.26550928
 C                     0.34835407    -0.06005427     0.00000000
 O                    -0.25628388    -1.33941562     0.00000000
 C                    -0.06786744     0.67654245     1.26550928
 H                     0.37105265     1.66909128    -1.30480912
 H                    -1.14792187     0.77590465    -1.29959674
 H                    -1.14792187     0.77590465     1.29959674
 H                     0.37105265     1.66909128     1.30480912
 H                     1.43082430    -0.17049475     0.00000000
 H                     0.40457996    -2.01442405     0.00000000
 H                     0.24644504     0.12603414    -2.14574980
 H                     0.24644504     0.12603414     2.14574980
    12
 geometry
 C                    -0.07166189     0.67891574    -1.26275561
 C                     0.34835407    -0.06005427     0.00006549
 O                    -0.25628388    -1.33941562    -0.00003396
 C                    -0.06407299     0.67416917     1.26826294
 H                     0.36874093     1.66568766    -1.30426909
 H                    -1.11270513     0.77325383    -1.29835359
 H                    -1.18313858     0.77855546     1.30083989
 H                     0.37336426     1.67249467     1.30534915
 H                     1.43082430    -0.17049475     0.00014045
 H                     0.40457996    -2.01442405     0.00019594
 H                     0.25861891     0.10382366    -2.18060907
 H                     0.23427124     0.14824450     2.11089070
    12
 geometry
 C                    -0.07545634     0.68128904    -1.26000194
 C                     0.34835407    -0.06005427     0.00013097
 O                    -0.25628388    -1.33941562    -0.00006792
 C                    -0.06027854     0.67179590     1.27101660
 H                     0.36642922     1.66228404    -1.30372905
 H                    -1.07748839     0.77060302    -1.29711044
 H                    -1.21835528     0.78120628     1.30208303
 H                     0.37567588     1.67589806     1.30588918
 H                     1.43082429    -0.17049475     0.00028089
 H                     0.40457996    -2.01442405     0.00039188
 H                     0.27079277     0.08161319    -2.21546833
 H                     0.22209743     0.17045487     2.07603161
    12
 geometry
 C                    -0.07925078     0.68366234    -1.25724826
 C                     0.34835407    -0.06005427     0.00019646
 O                    -0.25628388    -1.33941562    -0.00010188
 C                    -0.05648409     0.66942263     1.27377026
 H                     0.36411750     1.65888043    -1.30318902
 H                    -1.04227166     0.76795220    -1.29586729
 H                    -1.25357199     0.78385709     1.30332618
 H                     0.37798749     1.67930145     1.30642920
 H                     1.43082429    -0.17049475     0.00042134
 H                     0.40457996    -2.01442405     0.00058781
 H                     0.28296664     0.05940272    -2.25032760
 H                     0.20992363     0.19266524     2.04117251
    12
 geometry
 C                    -0.08304523     0.68603564    -1.25449459
 C                     0.34835407    -0.06005427     0.00026195
 O                    -0.25628388    -1.33941562    -0.00013584
 C                    -0.05268964     0.66704936     1.27652391
 H                     0.36180578     1.65547681    -1.30264898
 H                    -1.00705492     0.76530139    -1.29462414
 H                    -1.28878869     0.78650791     1.30456932
 H                     0.38029910     1.68270485     1.30696923
 H                     1.43082429    -0.17049475     0.00056178
 H                     0.40457996    -2.01442405     0.00078375
 H                     0.29514050     0.03719225    -2.28518687
 H                     0.19774982     0.21487561     2.00631342
    12
 geometry
 C                    -0.08683968     0.68840894    -1.25174092
 C                     0.34835407    -0.06005427     0.00032743
 O                    -0.25628388    -1.33941562    -0.00016980
 C                    -0.04889519     0.66467608     1.27927757
 H                     0.35949406     1.65207319    -1.30210895
 H                    -0.97183818     0.76265058    -1.29338099
 H                    -1.32400540     0.78915873     1.30581247
 H                     0.38261071     1.68610824     1.30750926
 H                     1.43082429    -0.17049475     0.00070223
 H                     0.40457996    -2.01442405     0.00097969
 H                     0.30731437     0.01498178    -2.32004613
 H                     0.18557602     0.23708598     1.97145432
    12
 geometry
 C                    -0.08304523     0.68603564    -1.25449459
 C                     0.34835407    -0.06005427     0.00026195
 O                    -0.25628388    -1.33941562    -0.00013584
 C                    -0.05268964     0.66704936     1.27652391
 H                     0.36180578     1.65547681    -1.30264898
 H                    -1.00705492     0.76530139    -1.29462414
 H                    -1.28878869     0.78650791     1.30456932
 H                     0.38029910     1.68270485     1.30696923
 H                     1.43082429    -0.17049475     0.00056178
 H                     0.40457996    -2.01442405     0.00078375
 H                     0.29514050     0.03719225    -2.28518687
 H                     0.19774982     0.21487561     2.00631342
    12
 geometry
 C                    -0.07925078     0.68366234    -1.25724826
 C                     0.34835407    -0.06005427     0.00019646
 O                    -0.25628388    -1.33941562    -0.00010188
 C                    -0.05648409     0.66942263     1.27377026
 H                     0.36411750     1.65888043    -1.30318902
 H                    -1.04227166     0.76795220    -1.29586729
 H                    -1.25357199     0.78385709     1.30332618
 H                     0.37798749     1.67930145     1.30642920
 H                     1.43082429    -0.17049475     0.00042134
 H                     0.40457996    -2.01442405     0.00058781
 H                     0.28296664     0.05940272    -2.25032760
 H                     0.20992363     0.19266524     2.04117251
    12
 geometry
 C                    -0.07545634     0.68128904    -1.26000194
 C                     0.34835407    -0.06005427     0.00013097
 O                    -0.25628388    -1.33941562    -0.00006792
 C                    -0.06027854     0.67179590     1.27101660
 H                     0.36642922     1.66228404    -1.30372905
 H                    -1.07748839     0.77060302    -1.29711044
 H                    -1.21835528     0.78120628     1.30208303
 H                     0.37567588     1.67589806     1.30588918
 H                     1.43082429    -0.17049475     0.00028089
 H                     0.40457996    -2.01442405     0.00039188
 H                     0.27079277     0.08161319    -2.21546833
 H                     0.22209743     0.17045487     2.07603161
    12
 geometry
 C                    -0.07166189     0.67891574    -1.26275561
 C                     0.34835407    -0.06005427     0.00006549
 O                    -0.25628388    -1.33941562    -0.00003396
 C                    -0.06407299     0.67416917     1.26826294
 H                     0.36874093     1.66568766    -1.30426909
 H                    -1.11270513     0.77325383    -1.29835359
 H                    -1.18313858     0.77855546     1.30083989
 H                     0.37336426     1.67249467     1.30534915
 H                     1.43082430    -0.17049475     0.00014045
 H                     0.40457996    -2.01442405     0.00019594
 H                     0.25861891     0.10382366    -2.18060907
 H                     0.23427124     0.14824450     2.11089070
    12
 geometry
 C                    -0.06786744     0.67654245    -1.26550928
 C                     0.34835407    -0.06005427     0.00000000
 O                    -0.25628388    -1.33941562     0.00000000
 C                    -0.06786744     0.67654245     1.26550928
 H                     0.37105265     1.66909128    -1.30480912
 H                    -1.14792187     0.77590465    -1.29959674
 H                    -1.14792187     0.77590465     1.29959674
 H                     0.37105265     1.66909128     1.30480912
 H                     1.43082430    -0.17049475     0.00000000
 H                     0.40457996    -2.01442405     0.00000000
 H                     0.24644504     0.12603414    -2.14574980
 H                     0.24644504     0.12603414     2.14574980
    12
 geometry
 C                    -0.06407299     0.67416915    -1.26826295
 C                     0.34835407    -0.06005427    -0.00006549
 O                    -0.25628388    -1.33941562     0.00003396
 C                    -0.07166189     0.67891572     1.26275562
 H                     0.37336437     1.67249489    -1.30534915
 H                    -1.18313861     0.77855546    -1.30083989
 H                    -1.11270516     0.77325383     1.29835359
 H                     0.36874104     1.66568788     1.30426909
 H                     1.43082430    -0.17049476    -0.00014045
 H                     0.40457996    -2.01442406    -0.00019594
 H                     0.23427117     0.14824461    -2.11089053
 H                     0.25861884     0.10382377     2.18060890
    12
 geometry
 C                    -0.06027854     0.67179585    -1.27101662
 C                     0.34835407    -0.06005428    -0.00013097
 O                    -0.25628388    -1.33941562     0.00006792
 C                    -0.07545634     0.68128899     1.26000196
 H                     0.37567608     1.67589851    -1.30588919
 H                    -1.21835535     0.78120627    -1.30208304
 H                    -1.07748846     0.77060301     1.29711045
 H                     0.36642942     1.66228449     1.30372906
 H                     1.43082431    -0.17049476    -0.00028089
 H                     0.40457996    -2.01442406    -0.00039188
 H                     0.22209731     0.17045508    -2.07603127
 H                     0.27079265     0.08161340     2.21546799
    12
 geometry
 C                    -0.05648410     0.66942255    -1.27377030
 C                     0.34835407    -0.06005428    -0.00019646
 O                    -0.25628388    -1.33941562     0.00010188
 C                    -0.07925079     0.68366226     1.25724830
 H                     0.37798780     1.67930212    -1.30642922
 H                    -1.25357208     0.78385709    -1.30332619
 H                    -1.04227175     0.76795220     1.29586730
 H                     0.36411781     1.65888110     1.30318904
 H                     1.43082431    -0.17049476    -0.00042134
 H                     0.40457996    -2.01442406    -0.00058781
 H                     0.20992344     0.19266555    -2.04117200
 H                     0.28296645     0.05940303     2.25032709
    12
 geometry
 C                    -0.05268965     0.66704925    -1.27652397
 C                     0.34835407    -0.06005428    -0.00026195
 O                    -0.25628388    -1.33941562     0.00013584
 C                    -0.08304524     0.68603553     1.25449465
 H                     0.38029952     1.68270574    -1.30696926
 H                    -1.28878882     0.78650790    -1.30456934
 H                    -1.00705505     0.76530138     1.29462416
 H                     0.36180620     1.65547770     1.30264901
 H                     1.43082431    -0.17049476    -0.00056178
 H                     0.40457996    -2.01442406    -0.00078375
 H                     0.19774958     0.21487602    -2.00631273
 H                     0.29514026     0.03719266     2.28518618
    12
 geometry
 C                    -0.04889520     0.66467595    -1.27927764
 C                     0.34835407    -0.06005428    -0.00032743
 O                    -0.25628388    -1.33941562     0.00016980
 C                    -0.08683969     0.68840881     1.25174099
 H                     0.38261124     1.68610936    -1.30750929
 H                    -1.32400556     0.78915871    -1.30581249
 H                    -0.97183834     0.76265057     1.29338101
 H                     0.35949459     1.65207431     1.30210898
 H                     1.43082431    -0.17049476    -0.00070223
 H                     0.40457996    -2.01442406    -0.00097969
 H                     0.18557571     0.23708650    -1.97145347
 H                     0.30731406     0.01498229     2.32004528
    12
 geometry
 C                    -0.05268965     0.66704925    -1.27652397
 C                     0.34835407    -0.06005428    -0.00026195
 O                    -0.25628388    -1.33941562     0.00013584
 C                    -0.08304524     0.68603553     1.25449465
 H                     0.38029952     1.68270574    -1.30696926
 H                    -1.28878882     0.78650790    -1.30456934
 H                    -1.00705505     0.76530138     1.29462416
 H                     0.36180620     1.65547770     1.30264901
 H                     1.43082431    -0.17049476    -0.00056178
 H                     0.40457996    -2.01442406    -0.00078375
 H                     0.19774958     0.21487602    -2.00631273
 H                     0.29514026     0.03719266     2.28518618
    12
 geometry
 C                    -0.05648410     0.66942255    -1.27377030
 C                     0.34835407    -0.06005428    -0.00019646
 O                    -0.25628388    -1.33941562     0.00010188
 C                    -0.07925079     0.68366226     1.25724830
 H                     0.37798780     1.67930212    -1.30642922
 H                    -1.25357208     0.78385709    -1.30332619
 H                    -1.04227175     0.76795220     1.29586730
 H                     0.36411781     1.65888110     1.30318904
 H                     1.43082431    -0.17049476    -0.00042134
 H                     0.40457996    -2.01442406    -0.00058781
 H                     0.20992344     0.19266555    -2.04117200
 H                     0.28296645     0.05940303     2.25032709
    12
 geometry
 C                    -0.06027854     0.67179585    -1.27101662
 C                     0.34835407    -0.06005428    -0.00013097
 O                    -0.25628388    -1.33941562     0.00006792
 C                    -0.07545634     0.68128899     1.26000196
 H                     0.37567608     1.67589851    -1.30588919
 H                    -1.21835535     0.78120627    -1.30208304
 H                    -1.07748846     0.77060301     1.29711045
 H                     0.36642942     1.66228449     1.30372906
 H                     1.43082431    -0.17049476    -0.00028089
 H                     0.40457996    -2.01442406    -0.00039188
 H                     0.22209731     0.17045508    -2.07603127
 H                     0.27079265     0.08161340     2.21546799
    12
 geometry
 C                    -0.06407299     0.67416915    -1.26826295
 C                     0.34835407    -0.06005427    -0.00006549
 O                    -0.25628388    -1.33941562     0.00003396
 C                    -0.07166189     0.67891572     1.26275562
 H                     0.37336437     1.67249489    -1.30534915
 H                    -1.18313861     0.77855546    -1.30083989
 H                    -1.11270516     0.77325383     1.29835359
 H                     0.36874104     1.66568788     1.30426909
 H                     1.43082430    -0.17049476    -0.00014045
 H                     0.40457996    -2.01442406    -0.00019594
 H                     0.23427117     0.14824461    -2.11089053
 H                     0.25861884     0.10382377     2.18060890
